/*---------------------------------------------------------------------------*\
| =========                 |                                                 |
| \\      /  F ield         | OpenFOAM: The Open Source CFD Toolbox           |
|  \\    /   O peration     | Version:  2.4.0                                 |
|   \\  /    A nd           | Web:      www.OpenFOAM.org                      |
|    \\/     M anipulation  |                                                 |
\*---------------------------------------------------------------------------*/
Build  : 2.4.0-ccc16fe54f4e
Exec   : /usr/bin/simpleFoam -case /cases/mik3d_1h
Date   : Feb 17 2016
Time   : 08:56:15
Host   : "osv.local"
PID    : 0
Case   : /cases/mik3d_1h
nProcs : 1
fileModificationChecking : Monitoring run-time modified files using timeStampMaster
allowSystemOperations : Allowing user-supplied system call operations

// * * * * * * * * * * * * * * * * * * * * * * * * * * * * * * * * * * * * * //
Create time

Create mesh for time = 0

Reading field p

Reading field U

Reading/calculating face flux field phi

Selecting incompressible transport model Newtonian
Selecting RAS turbulence model kOmegaSST
kOmegaSSTCoeffs
{
    alphaK1         0.85;
    alphaK2         1;
    alphaOmega1     0.5;
    alphaOmega2     0.856;
    gamma1          0.555555556;
    gamma2          0.44;
    beta1           0.075;
    beta2           0.0828;
    betaStar        0.09;
    a1              0.31;
    b1              1;
    c1              10;
    F3              false;
}

No finite volume options present


SIMPLE: no convergence criteria found. Calculations will run for 1000 steps.


Starting time loop

forces forceCoeffs1:
    Not including porosity effects

Time = 1

smoothSolver:  Solving for Ux, Initial residual = 1, Final residual = 0.0784424925, No Iterations 9
smoothSolver:  Solving for Uy, Initial residual = 1, Final residual = 0.0613984109, No Iterations 7
smoothSolver:  Solving for Uz, Initial residual = 1, Final residual = 0.0897387112, No Iterations 9
GAMG:  Solving for p, Initial residual = 0.999999932, Final residual = 0.00804155635, No Iterations 5
time step continuity errors : sum local = 0.000120529498, global = -3.62979422e-05, cumulative = -3.62979422e-05
smoothSolver:  Solving for omega, Initial residual = 0.00145415306, Final residual = 8.45949916e-05, No Iterations 5
smoothSolver:  Solving for k, Initial residual = 1, Final residual = 0.063945658, No Iterations 5
ExecutionTime = 6.441492 s  ClockTime = 7 s

Time = 2

smoothSolver:  Solving for Ux, Initial residual = 0.0169506108, Final residual = 0.00131821013, No Iterations 5
smoothSolver:  Solving for Uy, Initial residual = 0.571172931, Final residual = 0.0515943838, No Iterations 4
smoothSolver:  Solving for Uz, Initial residual = 0.378831641, Final residual = 0.0307512503, No Iterations 5
GAMG:  Solving for p, Initial residual = 0.370433733, Final residual = 0.00202028692, No Iterations 4
time step continuity errors : sum local = 0.00033573268, global = 0.000104218185, cumulative = 6.79202429e-05
smoothSolver:  Solving for omega, Initial residual = 0.00143231022, Final residual = 0.000128840817, No Iterations 4
smoothSolver:  Solving for k, Initial residual = 0.0732194303, Final residual = 0.00466673417, No Iterations 5
ExecutionTime = 8.3496 s  ClockTime = 9 s

Time = 3

smoothSolver:  Solving for Ux, Initial residual = 0.0090662207, Final residual = 0.000742680309, No Iterations 5
smoothSolver:  Solving for Uy, Initial residual = 0.245252382, Final residual = 0.0220773761, No Iterations 4
smoothSolver:  Solving for Uz, Initial residual = 0.12848199, Final residual = 0.0107510416, No Iterations 5
GAMG:  Solving for p, Initial residual = 0.0649726122, Final residual = 0.00047261885, No Iterations 4
time step continuity errors : sum local = 0.000483337571, global = 0.000122745993, cumulative = 0.000190666236
smoothSolver:  Solving for omega, Initial residual = 0.0023245678, Final residual = 0.000133637437, No Iterations 3
smoothSolver:  Solving for k, Initial residual = 0.016280866, Final residual = 0.00140659884, No Iterations 4
ExecutionTime = 10.182414 s  ClockTime = 10 s

Time = 4

smoothSolver:  Solving for Ux, Initial residual = 0.00481065579, Final residual = 0.000380706488, No Iterations 5
smoothSolver:  Solving for Uy, Initial residual = 0.176512045, Final residual = 0.0170075813, No Iterations 4
smoothSolver:  Solving for Uz, Initial residual = 0.0492521614, Final residual = 0.00373456095, No Iterations 5
GAMG:  Solving for p, Initial residual = 0.0173153423, Final residual = 0.000140947308, No Iterations 4
time step continuity errors : sum local = 0.000286406572, global = 6.27841759e-05, cumulative = 0.000253450412
smoothSolver:  Solving for omega, Initial residual = 0.000971264485, Final residual = 8.97993515e-05, No Iterations 3
smoothSolver:  Solving for k, Initial residual = 0.00661353682, Final residual = 0.000588743572, No Iterations 3
ExecutionTime = 11.944885 s  ClockTime = 12 s

Time = 5

smoothSolver:  Solving for Ux, Initial residual = 0.00643321234, Final residual = 0.000476290465, No Iterations 5
smoothSolver:  Solving for Uy, Initial residual = 0.271812344, Final residual = 0.0269082197, No Iterations 4
smoothSolver:  Solving for Uz, Initial residual = 0.0874990989, Final residual = 0.00754533448, No Iterations 5
GAMG:  Solving for p, Initial residual = 0.0221364393, Final residual = 9.99684392e-05, No Iterations 4
time step continuity errors : sum local = 0.000224302862, global = -6.38953607e-05, cumulative = 0.000189555051
smoothSolver:  Solving for omega, Initial residual = 0.000696145048, Final residual = 6.72121845e-05, No Iterations 3
smoothSolver:  Solving for k, Initial residual = 0.00449156107, Final residual = 0.000232013903, No Iterations 3
ExecutionTime = 13.716829 s  ClockTime = 14 s

Time = 6

smoothSolver:  Solving for Ux, Initial residual = 0.00682260522, Final residual = 0.00049055864, No Iterations 5
smoothSolver:  Solving for Uy, Initial residual = 0.196569186, Final residual = 0.0183693204, No Iterations 4
smoothSolver:  Solving for Uz, Initial residual = 0.0804540962, Final residual = 0.00732108398, No Iterations 5
GAMG:  Solving for p, Initial residual = 0.0401648936, Final residual = 0.000239013179, No Iterations 4
time step continuity errors : sum local = 0.000342419165, global = -0.000108885929, cumulative = 8.06691215e-05
smoothSolver:  Solving for omega, Initial residual = 0.000580513339, Final residual = 5.67564656e-05, No Iterations 3
smoothSolver:  Solving for k, Initial residual = 0.00207149613, Final residual = 9.0759984e-05, No Iterations 3
ExecutionTime = 15.672505 s  ClockTime = 16 s

Time = 7

smoothSolver:  Solving for Ux, Initial residual = 0.00573257406, Final residual = 0.00039653752, No Iterations 5
smoothSolver:  Solving for Uy, Initial residual = 0.157338225, Final residual = 0.0136832656, No Iterations 4
smoothSolver:  Solving for Uz, Initial residual = 0.0912988675, Final residual = 0.00664795719, No Iterations 5
GAMG:  Solving for p, Initial residual = 0.113026372, Final residual = 0.000611452179, No Iterations 4
time step continuity errors : sum local = 0.000218963259, global = -5.84191675e-05, cumulative = 2.2249954e-05
smoothSolver:  Solving for omega, Initial residual = 0.000403592017, Final residual = 3.87075808e-05, No Iterations 3
smoothSolver:  Solving for k, Initial residual = 0.0010339734, Final residual = 4.03103759e-05, No Iterations 3
ExecutionTime = 17.564887 s  ClockTime = 18 s

Time = 8

smoothSolver:  Solving for Ux, Initial residual = 0.00525876896, Final residual = 0.00037293547, No Iterations 5
smoothSolver:  Solving for Uy, Initial residual = 0.18917789, Final residual = 0.0172160323, No Iterations 4
smoothSolver:  Solving for Uz, Initial residual = 0.136687834, Final residual = 0.0100814199, No Iterations 5
GAMG:  Solving for p, Initial residual = 0.275423453, Final residual = 0.00130969022, No Iterations 4
time step continuity errors : sum local = 0.000182662987, global = 3.62923682e-05, cumulative = 5.85423222e-05
smoothSolver:  Solving for omega, Initial residual = 0.000333755325, Final residual = 3.27190884e-05, No Iterations 3
smoothSolver:  Solving for k, Initial residual = 0.000601794454, Final residual = 2.47837047e-05, No Iterations 3
ExecutionTime = 19.644119 s  ClockTime = 20 s

Time = 9

smoothSolver:  Solving for Ux, Initial residual = 0.00417509465, Final residual = 0.000303892466, No Iterations 5
smoothSolver:  Solving for Uy, Initial residual = 0.160669397, Final residual = 0.0143099438, No Iterations 4
smoothSolver:  Solving for Uz, Initial residual = 0.110213972, Final residual = 0.00892374711, No Iterations 5
GAMG:  Solving for p, Initial residual = 0.0952942784, Final residual = 0.000523871721, No Iterations 4
time step continuity errors : sum local = 0.000246975022, global = 7.19415147e-05, cumulative = 0.000130483837
smoothSolver:  Solving for omega, Initial residual = 0.00026717055, Final residual = 1.40570819e-05, No Iterations 4
smoothSolver:  Solving for k, Initial residual = 0.000489790243, Final residual = 2.51142724e-05, No Iterations 3
ExecutionTime = 21.657703 s  ClockTime = 22 s

Time = 10

smoothSolver:  Solving for Ux, Initial residual = 0.00327043526, Final residual = 0.000231649296, No Iterations 5
smoothSolver:  Solving for Uy, Initial residual = 0.135861474, Final residual = 0.0121711215, No Iterations 4
smoothSolver:  Solving for Uz, Initial residual = 0.0937562658, Final residual = 0.00682663977, No Iterations 5
GAMG:  Solving for p, Initial residual = 0.0317950262, Final residual = 0.000142198888, No Iterations 4
time step continuity errors : sum local = 0.000166120797, global = 4.68632097e-05, cumulative = 0.000177347047
smoothSolver:  Solving for omega, Initial residual = 0.000228486591, Final residual = 1.21016388e-05, No Iterations 4
smoothSolver:  Solving for k, Initial residual = 0.000522630988, Final residual = 2.57146626e-05, No Iterations 3
ExecutionTime = 23.552139 s  ClockTime = 24 s

forces forceCoeffs1 output:
    sum of forces:
        pressure : (-0.0344569483 0.00798200597 35.9788937)
        viscous  : (0.400705599 -5.89653719e-06 0.0334003059)
        porous   : (0 0 0)
    sum of moments:
        pressure : (0.00882378447 17.9199715 -0.0127562716)
        viscous  : (-2.53858348e-05 0.0177289567 -3.09596465e-05)
        porous   : (0 0 0)

Time = 11

smoothSolver:  Solving for Ux, Initial residual = 0.00277808933, Final residual = 0.000204975788, No Iterations 5
smoothSolver:  Solving for Uy, Initial residual = 0.124366783, Final residual = 0.0115447423, No Iterations 4
smoothSolver:  Solving for Uz, Initial residual = 0.0906713291, Final residual = 0.00577373248, No Iterations 5
GAMG:  Solving for p, Initial residual = 0.022654361, Final residual = 9.70652092e-05, No Iterations 4
time step continuity errors : sum local = 0.000138420133, global = -9.40508106e-06, cumulative = 0.000167941966
smoothSolver:  Solving for omega, Initial residual = 0.000202238268, Final residual = 1.09971431e-05, No Iterations 4
smoothSolver:  Solving for k, Initial residual = 0.00059053465, Final residual = 2.5721455e-05, No Iterations 3
ExecutionTime = 25.481759 s  ClockTime = 26 s

Time = 12

smoothSolver:  Solving for Ux, Initial residual = 0.00223684872, Final residual = 0.000171475931, No Iterations 5
smoothSolver:  Solving for Uy, Initial residual = 0.106151234, Final residual = 0.00917232086, No Iterations 4
smoothSolver:  Solving for Uz, Initial residual = 0.076147121, Final residual = 0.00508295308, No Iterations 5
GAMG:  Solving for p, Initial residual = 0.0251554803, Final residual = 0.000126333416, No Iterations 4
time step continuity errors : sum local = 0.000151829161, global = -3.60126343e-05, cumulative = 0.000131929331
smoothSolver:  Solving for omega, Initial residual = 0.000187725846, Final residual = 9.6163314e-06, No Iterations 4
smoothSolver:  Solving for k, Initial residual = 0.00061488365, Final residual = 2.76353535e-05, No Iterations 3
ExecutionTime = 27.305498 s  ClockTime = 28 s

Time = 13

smoothSolver:  Solving for Ux, Initial residual = 0.00206094569, Final residual = 0.000151017043, No Iterations 5
smoothSolver:  Solving for Uy, Initial residual = 0.0965144357, Final residual = 0.00808874649, No Iterations 4
smoothSolver:  Solving for Uz, Initial residual = 0.0741279499, Final residual = 0.0052350867, No Iterations 5
GAMG:  Solving for p, Initial residual = 0.0317146268, Final residual = 0.00012713477, No Iterations 4
time step continuity errors : sum local = 0.000110653473, global = -2.71464289e-05, cumulative = 0.000104782902
smoothSolver:  Solving for omega, Initial residual = 0.000175719395, Final residual = 1.70924228e-05, No Iterations 3
smoothSolver:  Solving for k, Initial residual = 0.000594506873, Final residual = 2.87237678e-05, No Iterations 3
ExecutionTime = 29.206573 s  ClockTime = 29 s

Time = 14

smoothSolver:  Solving for Ux, Initial residual = 0.00213515664, Final residual = 0.000143155368, No Iterations 5
smoothSolver:  Solving for Uy, Initial residual = 0.0870224093, Final residual = 0.00762192394, No Iterations 4
smoothSolver:  Solving for Uz, Initial residual = 0.0650058445, Final residual = 0.00439243643, No Iterations 5
GAMG:  Solving for p, Initial residual = 0.0336111928, Final residual = 0.000292819043, No Iterations 3
time step continuity errors : sum local = 0.000227285296, global = -1.23587696e-05, cumulative = 9.24241328e-05
smoothSolver:  Solving for omega, Initial residual = 0.000153598781, Final residual = 8.16163522e-06, No Iterations 4
smoothSolver:  Solving for k, Initial residual = 0.000550304782, Final residual = 2.88827385e-05, No Iterations 3
ExecutionTime = 31.140573 s  ClockTime = 31 s

Time = 15

smoothSolver:  Solving for Ux, Initial residual = 0.0019636097, Final residual = 0.000125849823, No Iterations 5
smoothSolver:  Solving for Uy, Initial residual = 0.0805988614, Final residual = 0.00720635738, No Iterations 4
smoothSolver:  Solving for Uz, Initial residual = 0.0520173666, Final residual = 0.0031451818, No Iterations 5
GAMG:  Solving for p, Initial residual = 0.0260089938, Final residual = 0.000107892007, No Iterations 4
time step continuity errors : sum local = 9.437691e-05, global = 1.94406381e-05, cumulative = 0.000111864771
smoothSolver:  Solving for omega, Initial residual = 0.000137790478, Final residual = 7.69174016e-06, No Iterations 4
smoothSolver:  Solving for k, Initial residual = 0.000528008915, Final residual = 2.87968392e-05, No Iterations 3
ExecutionTime = 32.903258 s  ClockTime = 33 s

Time = 16

smoothSolver:  Solving for Ux, Initial residual = 0.00163613066, Final residual = 0.000101172244, No Iterations 5
smoothSolver:  Solving for Uy, Initial residual = 0.0793283928, Final residual = 0.00710340619, No Iterations 4
smoothSolver:  Solving for Uz, Initial residual = 0.0469445019, Final residual = 0.00294923135, No Iterations 5
GAMG:  Solving for p, Initial residual = 0.0188507676, Final residual = 6.93262655e-05, No Iterations 4
time step continuity errors : sum local = 7.04255088e-05, global = 1.42340598e-05, cumulative = 0.000126098831
smoothSolver:  Solving for omega, Initial residual = 0.000130684379, Final residual = 7.33702226e-06, No Iterations 4
smoothSolver:  Solving for k, Initial residual = 0.000515868729, Final residual = 2.9322407e-05, No Iterations 3
ExecutionTime = 34.822654 s  ClockTime = 35 s

Time = 17

smoothSolver:  Solving for Ux, Initial residual = 0.00136252842, Final residual = 8.28795025e-05, No Iterations 5
smoothSolver:  Solving for Uy, Initial residual = 0.0687089557, Final residual = 0.00609082484, No Iterations 4
smoothSolver:  Solving for Uz, Initial residual = 0.0428641849, Final residual = 0.00300705196, No Iterations 5
GAMG:  Solving for p, Initial residual = 0.017191459, Final residual = 0.0001457284, No Iterations 3
time step continuity errors : sum local = 0.000148554912, global = 8.66292236e-06, cumulative = 0.000134761753
smoothSolver:  Solving for omega, Initial residual = 0.000122765128, Final residual = 6.78452376e-06, No Iterations 4
smoothSolver:  Solving for k, Initial residual = 0.000492845108, Final residual = 2.91274426e-05, No Iterations 3
ExecutionTime = 36.686621 s  ClockTime = 37 s

Time = 18

smoothSolver:  Solving for Ux, Initial residual = 0.00117215756, Final residual = 6.845728e-05, No Iterations 5
smoothSolver:  Solving for Uy, Initial residual = 0.0590603855, Final residual = 0.00510881385, No Iterations 4
smoothSolver:  Solving for Uz, Initial residual = 0.036305688, Final residual = 0.00241934279, No Iterations 5
GAMG:  Solving for p, Initial residual = 0.0177779595, Final residual = 0.000149866121, No Iterations 3
time step continuity errors : sum local = 0.00014122604, global = -1.19245827e-05, cumulative = 0.00012283717
smoothSolver:  Solving for omega, Initial residual = 0.000114118102, Final residual = 6.20462898e-06, No Iterations 4
smoothSolver:  Solving for k, Initial residual = 0.0004523749, Final residual = 2.84929687e-05, No Iterations 3
ExecutionTime = 38.427411 s  ClockTime = 39 s

Time = 19

smoothSolver:  Solving for Ux, Initial residual = 0.00104103818, Final residual = 0.000101473394, No Iterations 4
smoothSolver:  Solving for Uy, Initial residual = 0.0549003056, Final residual = 0.00469134734, No Iterations 4
smoothSolver:  Solving for Uz, Initial residual = 0.031756565, Final residual = 0.00180691027, No Iterations 5
GAMG:  Solving for p, Initial residual = 0.0162904936, Final residual = 0.000151556081, No Iterations 3
time step continuity errors : sum local = 0.00013489071, global = -1.3344259e-05, cumulative = 0.000109492911
smoothSolver:  Solving for omega, Initial residual = 0.000108109009, Final residual = 5.87341007e-06, No Iterations 4
smoothSolver:  Solving for k, Initial residual = 0.000409722695, Final residual = 2.71077193e-05, No Iterations 3
ExecutionTime = 40.169693 s  ClockTime = 40 s

Time = 20

smoothSolver:  Solving for Ux, Initial residual = 0.000974193379, Final residual = 5.81896386e-05, No Iterations 5
smoothSolver:  Solving for Uy, Initial residual = 0.0528985062, Final residual = 0.00457967808, No Iterations 4
smoothSolver:  Solving for Uz, Initial residual = 0.0282905154, Final residual = 0.00168458789, No Iterations 5
GAMG:  Solving for p, Initial residual = 0.0131175084, Final residual = 0.000117869739, No Iterations 3
time step continuity errors : sum local = 0.000107535279, global = 2.6011366e-06, cumulative = 0.000112094048
smoothSolver:  Solving for omega, Initial residual = 0.000103449211, Final residual = 5.63503646e-06, No Iterations 4
smoothSolver:  Solving for k, Initial residual = 0.000368347277, Final residual = 2.55045233e-05, No Iterations 3
ExecutionTime = 41.903818 s  ClockTime = 42 s

forces forceCoeffs1 output:
    sum of forces:
        pressure : (2.36156168 0.00125830107 40.883052)
        viscous  : (0.481889908 2.09426587e-05 0.0278150309)
        porous   : (0 0 0)
    sum of moments:
        pressure : (0.0289711063 20.3513857 -0.000956480426)
        viscous  : (6.53188496e-06 0.0181608341 -0.000117736072)
        porous   : (0 0 0)

Time = 21

smoothSolver:  Solving for Ux, Initial residual = 0.000923814717, Final residual = 5.65725988e-05, No Iterations 5
smoothSolver:  Solving for Uy, Initial residual = 0.0501580233, Final residual = 0.00443238428, No Iterations 4
smoothSolver:  Solving for Uz, Initial residual = 0.0232506214, Final residual = 0.0014575399, No Iterations 5
GAMG:  Solving for p, Initial residual = 0.0109544303, Final residual = 0.000102239364, No Iterations 3
time step continuity errors : sum local = 9.99995489e-05, global = 1.432764e-05, cumulative = 0.000126421688
smoothSolver:  Solving for omega, Initial residual = 9.90041258e-05, Final residual = 5.39717098e-06, No Iterations 4
smoothSolver:  Solving for k, Initial residual = 0.000343698024, Final residual = 2.43784709e-05, No Iterations 3
ExecutionTime = 43.765507 s  ClockTime = 44 s

Time = 22

smoothSolver:  Solving for Ux, Initial residual = 0.000890280048, Final residual = 5.3617504e-05, No Iterations 5
smoothSolver:  Solving for Uy, Initial residual = 0.045901172, Final residual = 0.00405905881, No Iterations 4
smoothSolver:  Solving for Uz, Initial residual = 0.0193562793, Final residual = 0.00114341282, No Iterations 5
GAMG:  Solving for p, Initial residual = 0.00991998415, Final residual = 3.66087466e-05, No Iterations 4
time step continuity errors : sum local = 3.73088531e-05, global = 5.41025915e-06, cumulative = 0.000131831947
smoothSolver:  Solving for omega, Initial residual = 9.53666978e-05, Final residual = 5.22886357e-06, No Iterations 4
smoothSolver:  Solving for k, Initial residual = 0.000324581611, Final residual = 2.37504557e-05, No Iterations 3
ExecutionTime = 45.565497 s  ClockTime = 46 s

Time = 23

smoothSolver:  Solving for Ux, Initial residual = 0.000876079272, Final residual = 5.14712789e-05, No Iterations 5
smoothSolver:  Solving for Uy, Initial residual = 0.0410566502, Final residual = 0.00358483365, No Iterations 4
smoothSolver:  Solving for Uz, Initial residual = 0.0176450723, Final residual = 0.00174573965, No Iterations 4
GAMG:  Solving for p, Initial residual = 0.00886195185, Final residual = 8.23845915e-05, No Iterations 3
time step continuity errors : sum local = 8.23354357e-05, global = 5.55461411e-07, cumulative = 0.000132387408
smoothSolver:  Solving for omega, Initial residual = 9.22773183e-05, Final residual = 4.97030222e-06, No Iterations 4
smoothSolver:  Solving for k, Initial residual = 0.000304882141, Final residual = 2.30155532e-05, No Iterations 3
ExecutionTime = 47.187583 s  ClockTime = 47 s

Time = 24

smoothSolver:  Solving for Ux, Initial residual = 0.000828207463, Final residual = 4.9103991e-05, No Iterations 5
smoothSolver:  Solving for Uy, Initial residual = 0.0402343499, Final residual = 0.00348315091, No Iterations 4
smoothSolver:  Solving for Uz, Initial residual = 0.0160508936, Final residual = 0.000950142952, No Iterations 5
GAMG:  Solving for p, Initial residual = 0.00838978966, Final residual = 8.22348483e-05, No Iterations 3
time step continuity errors : sum local = 7.82460933e-05, global = -6.47512557e-06, cumulative = 0.000125912283
smoothSolver:  Solving for omega, Initial residual = 8.73785204e-05, Final residual = 4.67221782e-06, No Iterations 4
smoothSolver:  Solving for k, Initial residual = 0.00028339244, Final residual = 2.24929364e-05, No Iterations 3
ExecutionTime = 48.91425 s  ClockTime = 49 s

Time = 25

smoothSolver:  Solving for Ux, Initial residual = 0.000796810234, Final residual = 4.69542214e-05, No Iterations 5
smoothSolver:  Solving for Uy, Initial residual = 0.0394564149, Final residual = 0.0033807199, No Iterations 4
smoothSolver:  Solving for Uz, Initial residual = 0.0133769469, Final residual = 0.000797993645, No Iterations 5
GAMG:  Solving for p, Initial residual = 0.00772401013, Final residual = 3.36735987e-05, No Iterations 4
time step continuity errors : sum local = 3.1066727e-05, global = -3.44831981e-07, cumulative = 0.000125567451
smoothSolver:  Solving for omega, Initial residual = 8.15030292e-05, Final residual = 4.34466627e-06, No Iterations 4
smoothSolver:  Solving for k, Initial residual = 0.000259813415, Final residual = 2.18302457e-05, No Iterations 3
ExecutionTime = 50.597189 s  ClockTime = 51 s

Time = 26

smoothSolver:  Solving for Ux, Initial residual = 0.000784429401, Final residual = 7.82982471e-05, No Iterations 4
smoothSolver:  Solving for Uy, Initial residual = 0.0370794596, Final residual = 0.00310439119, No Iterations 4
smoothSolver:  Solving for Uz, Initial residual = 0.0119234212, Final residual = 0.00118138367, No Iterations 4
GAMG:  Solving for p, Initial residual = 0.00695803471, Final residual = 2.79991643e-05, No Iterations 4
time step continuity errors : sum local = 2.62824065e-05, global = 3.46390687e-06, cumulative = 0.000129031358
smoothSolver:  Solving for omega, Initial residual = 7.67411182e-05, Final residual = 4.11350912e-06, No Iterations 4
smoothSolver:  Solving for k, Initial residual = 0.000244731748, Final residual = 2.15127962e-05, No Iterations 3
ExecutionTime = 52.330751 s  ClockTime = 53 s

Time = 27

smoothSolver:  Solving for Ux, Initial residual = 0.00076413356, Final residual = 7.36116161e-05, No Iterations 4
smoothSolver:  Solving for Uy, Initial residual = 0.0337450263, Final residual = 0.00277787148, No Iterations 4
smoothSolver:  Solving for Uz, Initial residual = 0.0108919595, Final residual = 0.00102498871, No Iterations 4
GAMG:  Solving for p, Initial residual = 0.00615010146, Final residual = 2.79674014e-05, No Iterations 4
time step continuity errors : sum local = 2.72914529e-05, global = 2.40181724e-06, cumulative = 0.000131433175
smoothSolver:  Solving for omega, Initial residual = 7.34100736e-05, Final residual = 3.92653056e-06, No Iterations 4
smoothSolver:  Solving for k, Initial residual = 0.000239856256, Final residual = 2.13168039e-05, No Iterations 3
ExecutionTime = 54.010548 s  ClockTime = 54 s

Time = 28

smoothSolver:  Solving for Ux, Initial residual = 0.000725720772, Final residual = 6.96320839e-05, No Iterations 4
smoothSolver:  Solving for Uy, Initial residual = 0.031492914, Final residual = 0.00253682776, No Iterations 4
smoothSolver:  Solving for Uz, Initial residual = 0.00978379065, Final residual = 0.000941853257, No Iterations 4
GAMG:  Solving for p, Initial residual = 0.00560737805, Final residual = 2.53024655e-05, No Iterations 4
time step continuity errors : sum local = 2.52137045e-05, global = -9.90777765e-07, cumulative = 0.000130442397
smoothSolver:  Solving for omega, Initial residual = 6.9264545e-05, Final residual = 3.74398078e-06, No Iterations 4
smoothSolver:  Solving for k, Initial residual = 0.000234641777, Final residual = 2.09930784e-05, No Iterations 3
ExecutionTime = 55.717044 s  ClockTime = 56 s

Time = 29

smoothSolver:  Solving for Ux, Initial residual = 0.000702879232, Final residual = 6.86412427e-05, No Iterations 4
smoothSolver:  Solving for Uy, Initial residual = 0.0303679856, Final residual = 0.00250502252, No Iterations 4
smoothSolver:  Solving for Uz, Initial residual = 0.00900082555, Final residual = 0.000882362341, No Iterations 4
GAMG:  Solving for p, Initial residual = 0.00505779099, Final residual = 2.33202846e-05, No Iterations 4
time step continuity errors : sum local = 2.30224227e-05, global = -3.09643588e-06, cumulative = 0.000127345961
smoothSolver:  Solving for omega, Initial residual = 6.54797966e-05, Final residual = 3.61498823e-06, No Iterations 4
smoothSolver:  Solving for k, Initial residual = 0.000224856248, Final residual = 2.05781582e-05, No Iterations 3
ExecutionTime = 57.519143 s  ClockTime = 58 s

Time = 30

smoothSolver:  Solving for Ux, Initial residual = 0.000691966264, Final residual = 6.75764818e-05, No Iterations 4
smoothSolver:  Solving for Uy, Initial residual = 0.0293414635, Final residual = 0.00253221817, No Iterations 4
smoothSolver:  Solving for Uz, Initial residual = 0.00820013431, Final residual = 0.000803447975, No Iterations 4
GAMG:  Solving for p, Initial residual = 0.00469789832, Final residual = 2.37335938e-05, No Iterations 4
time step continuity errors : sum local = 2.28822628e-05, global = -1.81241327e-06, cumulative = 0.000125533548
smoothSolver:  Solving for omega, Initial residual = 6.21522913e-05, Final residual = 3.45240314e-06, No Iterations 4
smoothSolver:  Solving for k, Initial residual = 0.000213864774, Final residual = 2.02207543e-05, No Iterations 3
ExecutionTime = 59.264202 s  ClockTime = 59 s

forces forceCoeffs1 output:
    sum of forces:
        pressure : (1.67565164 -0.00123436263 41.1028027)
        viscous  : (0.609340623 5.99722753e-06 0.0372745432)
        porous   : (0 0 0)
    sum of moments:
        pressure : (0.000837377443 20.8023984 0.000282313148)
        viscous  : (3.4223255e-06 0.02489084 -2.63082146e-05)
        porous   : (0 0 0)

Time = 31

smoothSolver:  Solving for Ux, Initial residual = 0.000679250261, Final residual = 6.56069906e-05, No Iterations 4
smoothSolver:  Solving for Uy, Initial residual = 0.0280606073, Final residual = 0.00248771031, No Iterations 4
smoothSolver:  Solving for Uz, Initial residual = 0.00722301836, Final residual = 0.000717947017, No Iterations 4
GAMG:  Solving for p, Initial residual = 0.00452688179, Final residual = 2.27671489e-05, No Iterations 4
time step continuity errors : sum local = 2.16550612e-05, global = 1.43798523e-06, cumulative = 0.000126971533
smoothSolver:  Solving for omega, Initial residual = 5.8137776e-05, Final residual = 3.24997942e-06, No Iterations 4
smoothSolver:  Solving for k, Initial residual = 0.000202948544, Final residual = 1.99669623e-05, No Iterations 3
ExecutionTime = 61.120089 s  ClockTime = 61 s

Time = 32

smoothSolver:  Solving for Ux, Initial residual = 0.000652551296, Final residual = 6.31034405e-05, No Iterations 4
smoothSolver:  Solving for Uy, Initial residual = 0.0262868295, Final residual = 0.00228230022, No Iterations 4
smoothSolver:  Solving for Uz, Initial residual = 0.00648965874, Final residual = 0.000646796119, No Iterations 4
GAMG:  Solving for p, Initial residual = 0.00429766311, Final residual = 2.35553943e-05, No Iterations 4
time step continuity errors : sum local = 2.25210699e-05, global = 3.73973612e-06, cumulative = 0.000130711269
smoothSolver:  Solving for omega, Initial residual = 5.44574961e-05, Final residual = 3.07887868e-06, No Iterations 4
smoothSolver:  Solving for k, Initial residual = 0.000196685733, Final residual = 1.03850421e-05, No Iterations 4
ExecutionTime = 62.801758 s  ClockTime = 63 s

Time = 33

smoothSolver:  Solving for Ux, Initial residual = 0.000634660507, Final residual = 6.12779397e-05, No Iterations 4
smoothSolver:  Solving for Uy, Initial residual = 0.0249168492, Final residual = 0.00213647715, No Iterations 4
smoothSolver:  Solving for Uz, Initial residual = 0.00594597176, Final residual = 0.0005710278, No Iterations 4
GAMG:  Solving for p, Initial residual = 0.0039537004, Final residual = 2.46509813e-05, No Iterations 4
time step continuity errors : sum local = 2.38869672e-05, global = 3.953414e-06, cumulative = 0.000134664683
smoothSolver:  Solving for omega, Initial residual = 5.21305534e-05, Final residual = 2.92741943e-06, No Iterations 4
smoothSolver:  Solving for k, Initial residual = 0.000193317804, Final residual = 1.05379868e-05, No Iterations 4
ExecutionTime = 64.615955 s  ClockTime = 65 s

Time = 34

smoothSolver:  Solving for Ux, Initial residual = 0.000619101624, Final residual = 5.96660765e-05, No Iterations 4
smoothSolver:  Solving for Uy, Initial residual = 0.0241482268, Final residual = 0.00208498001, No Iterations 4
smoothSolver:  Solving for Uz, Initial residual = 0.00542878796, Final residual = 0.000525423028, No Iterations 4
GAMG:  Solving for p, Initial residual = 0.00364315572, Final residual = 2.29622439e-05, No Iterations 4
time step continuity errors : sum local = 2.24638967e-05, global = 2.04583677e-06, cumulative = 0.00013671052
smoothSolver:  Solving for omega, Initial residual = 4.95108589e-05, Final residual = 2.75992939e-06, No Iterations 4
smoothSolver:  Solving for k, Initial residual = 0.000190519487, Final residual = 1.06500788e-05, No Iterations 4
ExecutionTime = 66.37725 s  ClockTime = 67 s

Time = 35

smoothSolver:  Solving for Ux, Initial residual = 0.000609667979, Final residual = 5.81413577e-05, No Iterations 4
smoothSolver:  Solving for Uy, Initial residual = 0.0234305519, Final residual = 0.00201178848, No Iterations 4
smoothSolver:  Solving for Uz, Initial residual = 0.00516644686, Final residual = 0.000304015239, No Iterations 5
GAMG:  Solving for p, Initial residual = 0.00344153751, Final residual = 1.94505713e-05, No Iterations 4
time step continuity errors : sum local = 1.9091251e-05, global = -2.21406716e-07, cumulative = 0.000136489114
smoothSolver:  Solving for omega, Initial residual = 4.63885483e-05, Final residual = 2.59256179e-06, No Iterations 4
smoothSolver:  Solving for k, Initial residual = 0.000184945013, Final residual = 1.06939818e-05, No Iterations 4
ExecutionTime = 68.169311 s  ClockTime = 68 s

Time = 36

smoothSolver:  Solving for Ux, Initial residual = 0.000587531664, Final residual = 5.61608733e-05, No Iterations 4
smoothSolver:  Solving for Uy, Initial residual = 0.0224566883, Final residual = 0.00192497499, No Iterations 4
smoothSolver:  Solving for Uz, Initial residual = 0.0050152525, Final residual = 0.000300099794, No Iterations 5
GAMG:  Solving for p, Initial residual = 0.0033260271, Final residual = 1.78636976e-05, No Iterations 4
time step continuity errors : sum local = 1.75350852e-05, global = -1.90557922e-06, cumulative = 0.000134583534
smoothSolver:  Solving for omega, Initial residual = 4.29564455e-05, Final residual = 2.43103514e-06, No Iterations 4
smoothSolver:  Solving for k, Initial residual = 0.000177580162, Final residual = 1.0703327e-05, No Iterations 4
ExecutionTime = 69.997463 s  ClockTime = 70 s

Time = 37

smoothSolver:  Solving for Ux, Initial residual = 0.000557420054, Final residual = 5.49710911e-05, No Iterations 4
smoothSolver:  Solving for Uy, Initial residual = 0.0213106091, Final residual = 0.00189338103, No Iterations 4
smoothSolver:  Solving for Uz, Initial residual = 0.00483857265, Final residual = 0.000286946519, No Iterations 5
GAMG:  Solving for p, Initial residual = 0.0032211846, Final residual = 1.79832223e-05, No Iterations 4
time step continuity errors : sum local = 1.76515305e-05, global = -2.07492089e-06, cumulative = 0.000132508613
smoothSolver:  Solving for omega, Initial residual = 3.93764948e-05, Final residual = 2.27520288e-06, No Iterations 4
smoothSolver:  Solving for k, Initial residual = 0.000170361828, Final residual = 1.07264713e-05, No Iterations 4
ExecutionTime = 71.717832 s  ClockTime = 72 s

Time = 38

smoothSolver:  Solving for Ux, Initial residual = 0.000539342122, Final residual = 3.18904765e-05, No Iterations 5
smoothSolver:  Solving for Uy, Initial residual = 0.0203905343, Final residual = 0.00183530474, No Iterations 4
smoothSolver:  Solving for Uz, Initial residual = 0.0045594718, Final residual = 0.000271057444, No Iterations 5
GAMG:  Solving for p, Initial residual = 0.00314714002, Final residual = 1.60682638e-05, No Iterations 4
time step continuity errors : sum local = 1.57570628e-05, global = -9.98478134e-07, cumulative = 0.000131510135
smoothSolver:  Solving for omega, Initial residual = 3.65416657e-05, Final residual = 2.1387872e-06, No Iterations 4
smoothSolver:  Solving for k, Initial residual = 0.00016626277, Final residual = 1.07900507e-05, No Iterations 4
ExecutionTime = 73.442189 s  ClockTime = 74 s

Time = 39

smoothSolver:  Solving for Ux, Initial residual = 0.000528267155, Final residual = 3.25155957e-05, No Iterations 5
smoothSolver:  Solving for Uy, Initial residual = 0.0194763373, Final residual = 0.00171603819, No Iterations 4
smoothSolver:  Solving for Uz, Initial residual = 0.00439765528, Final residual = 0.000269487387, No Iterations 5
GAMG:  Solving for p, Initial residual = 0.00305765838, Final residual = 1.50792933e-05, No Iterations 4
time step continuity errors : sum local = 1.47104025e-05, global = 8.32130874e-07, cumulative = 0.000132342266
smoothSolver:  Solving for omega, Initial residual = 3.42986236e-05, Final residual = 2.00183376e-06, No Iterations 4
smoothSolver:  Solving for k, Initial residual = 0.00016376183, Final residual = 1.08137438e-05, No Iterations 4
ExecutionTime = 75.163156 s  ClockTime = 75 s

Time = 40

smoothSolver:  Solving for Ux, Initial residual = 0.000517471053, Final residual = 3.20231998e-05, No Iterations 5
smoothSolver:  Solving for Uy, Initial residual = 0.0187715712, Final residual = 0.00164066412, No Iterations 4
smoothSolver:  Solving for Uz, Initial residual = 0.00437215619, Final residual = 0.000277089291, No Iterations 5
GAMG:  Solving for p, Initial residual = 0.00298571168, Final residual = 1.71364726e-05, No Iterations 4
time step continuity errors : sum local = 1.65848404e-05, global = 2.47843693e-06, cumulative = 0.000134820703
smoothSolver:  Solving for omega, Initial residual = 3.20450434e-05, Final residual = 1.86682508e-06, No Iterations 4
smoothSolver:  Solving for k, Initial residual = 0.000159528335, Final residual = 1.07390456e-05, No Iterations 4
ExecutionTime = 76.868309 s  ClockTime = 77 s

forces forceCoeffs1 output:
    sum of forces:
        pressure : (1.27641783 -0.00038931315 39.4746025)
        viscous  : (0.684162819 -8.91665847e-05 0.0399655235)
        porous   : (0 0 0)
    sum of moments:
        pressure : (-0.0075870937 20.3078598 -0.0013487486)
        viscous  : (2.70272024e-06 0.0271135761 4.1196473e-05)
        porous   : (0 0 0)

Time = 41

smoothSolver:  Solving for Ux, Initial residual = 0.000507143456, Final residual = 3.12019003e-05, No Iterations 5
smoothSolver:  Solving for Uy, Initial residual = 0.0180879309, Final residual = 0.00162601068, No Iterations 4
smoothSolver:  Solving for Uz, Initial residual = 0.00440708975, Final residual = 0.000287735661, No Iterations 5
GAMG:  Solving for p, Initial residual = 0.00291811635, Final residual = 1.75437711e-05, No Iterations 4
time step continuity errors : sum local = 1.68953653e-05, global = 3.06305413e-06, cumulative = 0.000137883757
smoothSolver:  Solving for omega, Initial residual = 2.97836082e-05, Final residual = 1.74117922e-06, No Iterations 4
smoothSolver:  Solving for k, Initial residual = 0.00015392022, Final residual = 1.05901227e-05, No Iterations 4
ExecutionTime = 78.585923 s  ClockTime = 79 s

Time = 42

smoothSolver:  Solving for Ux, Initial residual = 0.000495564128, Final residual = 3.06600309e-05, No Iterations 5
smoothSolver:  Solving for Uy, Initial residual = 0.0173445937, Final residual = 0.00156397958, No Iterations 4
smoothSolver:  Solving for Uz, Initial residual = 0.00439022333, Final residual = 0.000295458831, No Iterations 5
GAMG:  Solving for p, Initial residual = 0.00284005317, Final residual = 1.50801137e-05, No Iterations 4
time step continuity errors : sum local = 1.45698954e-05, global = 2.46624331e-06, cumulative = 0.000140350001
smoothSolver:  Solving for omega, Initial residual = 2.76056595e-05, Final residual = 1.64462291e-06, No Iterations 4
smoothSolver:  Solving for k, Initial residual = 0.000148436457, Final residual = 1.04377229e-05, No Iterations 4
ExecutionTime = 80.31495 s  ClockTime = 81 s

Time = 43

smoothSolver:  Solving for Ux, Initial residual = 0.000482647502, Final residual = 3.020198e-05, No Iterations 5
smoothSolver:  Solving for Uy, Initial residual = 0.0163890918, Final residual = 0.00141533327, No Iterations 4
smoothSolver:  Solving for Uz, Initial residual = 0.0043066423, Final residual = 0.000291003049, No Iterations 5
GAMG:  Solving for p, Initial residual = 0.00275880097, Final residual = 1.27077326e-05, No Iterations 4
time step continuity errors : sum local = 1.2402487e-05, global = 4.59047607e-07, cumulative = 0.000140809048
smoothSolver:  Solving for omega, Initial residual = 2.57825862e-05, Final residual = 1.56738478e-06, No Iterations 4
smoothSolver:  Solving for k, Initial residual = 0.000144134308, Final residual = 1.03195981e-05, No Iterations 4
ExecutionTime = 82.06894 s  ClockTime = 82 s

Time = 44

smoothSolver:  Solving for Ux, Initial residual = 0.000466492336, Final residual = 2.96737012e-05, No Iterations 5
smoothSolver:  Solving for Uy, Initial residual = 0.0155307992, Final residual = 0.00133202209, No Iterations 4
smoothSolver:  Solving for Uz, Initial residual = 0.00419185935, Final residual = 0.000280776457, No Iterations 5
GAMG:  Solving for p, Initial residual = 0.00267454092, Final residual = 1.32433983e-05, No Iterations 4
time step continuity errors : sum local = 1.30470441e-05, global = -1.61481659e-06, cumulative = 0.000139194232
smoothSolver:  Solving for omega, Initial residual = 2.43260902e-05, Final residual = 1.48864592e-06, No Iterations 4
smoothSolver:  Solving for k, Initial residual = 0.000141274074, Final residual = 1.02191884e-05, No Iterations 4
ExecutionTime = 83.757945 s  ClockTime = 84 s

Time = 45

smoothSolver:  Solving for Ux, Initial residual = 0.000445705989, Final residual = 2.9005496e-05, No Iterations 5
smoothSolver:  Solving for Uy, Initial residual = 0.0149477529, Final residual = 0.00133086081, No Iterations 4
smoothSolver:  Solving for Uz, Initial residual = 0.00409206741, Final residual = 0.000273711012, No Iterations 5
GAMG:  Solving for p, Initial residual = 0.00258840973, Final residual = 1.24925106e-05, No Iterations 4
time step continuity errors : sum local = 1.23315773e-05, global = -2.22292769e-06, cumulative = 0.000136971304
smoothSolver:  Solving for omega, Initial residual = 2.28640385e-05, Final residual = 1.40346484e-06, No Iterations 4
smoothSolver:  Solving for k, Initial residual = 0.000138580333, Final residual = 1.01044549e-05, No Iterations 4
ExecutionTime = 85.474475 s  ClockTime = 86 s

Time = 46

smoothSolver:  Solving for Ux, Initial residual = 0.00041818449, Final residual = 2.77996635e-05, No Iterations 5
smoothSolver:  Solving for Uy, Initial residual = 0.0146587489, Final residual = 0.00132599967, No Iterations 4
smoothSolver:  Solving for Uz, Initial residual = 0.00400726309, Final residual = 0.000266127079, No Iterations 5
GAMG:  Solving for p, Initial residual = 0.0025088566, Final residual = 1.03984349e-05, No Iterations 4
time step continuity errors : sum local = 1.01929079e-05, global = -1.1306287e-06, cumulative = 0.000135840675
smoothSolver:  Solving for omega, Initial residual = 2.14138081e-05, Final residual = 1.31944859e-06, No Iterations 4
smoothSolver:  Solving for k, Initial residual = 0.000134726745, Final residual = 9.94699067e-06, No Iterations 4
ExecutionTime = 87.174677 s  ClockTime = 87 s

Time = 47

smoothSolver:  Solving for Ux, Initial residual = 0.000396619757, Final residual = 2.67739216e-05, No Iterations 5
smoothSolver:  Solving for Uy, Initial residual = 0.0141769995, Final residual = 0.00126894145, No Iterations 4
smoothSolver:  Solving for Uz, Initial residual = 0.00395645643, Final residual = 0.000260760991, No Iterations 5
GAMG:  Solving for p, Initial residual = 0.00242137139, Final residual = 1.07231212e-05, No Iterations 4
time step continuity errors : sum local = 1.040481e-05, global = 8.15253627e-07, cumulative = 0.000136655929
smoothSolver:  Solving for omega, Initial residual = 1.99887453e-05, Final residual = 1.24899996e-06, No Iterations 4
smoothSolver:  Solving for k, Initial residual = 0.000130037163, Final residual = 9.78076181e-06, No Iterations 4
ExecutionTime = 88.881581 s  ClockTime = 89 s

Time = 48

smoothSolver:  Solving for Ux, Initial residual = 0.000384085785, Final residual = 2.58582092e-05, No Iterations 5
smoothSolver:  Solving for Uy, Initial residual = 0.0135924142, Final residual = 0.00117995562, No Iterations 4
smoothSolver:  Solving for Uz, Initial residual = 0.00383871435, Final residual = 0.000249070391, No Iterations 5
GAMG:  Solving for p, Initial residual = 0.00234116085, Final residual = 1.15778603e-05, No Iterations 4
time step continuity errors : sum local = 1.11625697e-05, global = 1.81617652e-06, cumulative = 0.000138472105
smoothSolver:  Solving for omega, Initial residual = 1.87220438e-05, Final residual = 1.19062056e-06, No Iterations 4
smoothSolver:  Solving for k, Initial residual = 0.000125865398, Final residual = 9.63841241e-06, No Iterations 4
ExecutionTime = 90.587589 s  ClockTime = 91 s

Time = 49

smoothSolver:  Solving for Ux, Initial residual = 0.000374843494, Final residual = 2.48187713e-05, No Iterations 5
smoothSolver:  Solving for Uy, Initial residual = 0.0130382875, Final residual = 0.00115412403, No Iterations 4
smoothSolver:  Solving for Uz, Initial residual = 0.00369239066, Final residual = 0.000244328456, No Iterations 5
GAMG:  Solving for p, Initial residual = 0.00226945805, Final residual = 1.07089536e-05, No Iterations 4
time step continuity errors : sum local = 1.03309742e-05, global = 1.5903231e-06, cumulative = 0.000140062428
smoothSolver:  Solving for omega, Initial residual = 1.78344878e-05, Final residual = 1.13509521e-06, No Iterations 4
smoothSolver:  Solving for k, Initial residual = 0.000122979099, Final residual = 9.51300632e-06, No Iterations 4
ExecutionTime = 92.280931 s  ClockTime = 92 s

Time = 50

smoothSolver:  Solving for Ux, Initial residual = 0.000362578943, Final residual = 2.37489868e-05, No Iterations 5
smoothSolver:  Solving for Uy, Initial residual = 0.0125532741, Final residual = 0.00111948495, No Iterations 4
smoothSolver:  Solving for Uz, Initial residual = 0.00357937052, Final residual = 0.000244361051, No Iterations 5
GAMG:  Solving for p, Initial residual = 0.00219461593, Final residual = 9.70394119e-06, No Iterations 4
time step continuity errors : sum local = 9.40944606e-06, global = 7.37668915e-08, cumulative = 0.000140136195
smoothSolver:  Solving for omega, Initial residual = 1.71792615e-05, Final residual = 1.07810702e-06, No Iterations 4
smoothSolver:  Solving for k, Initial residual = 0.000120466837, Final residual = 9.36458918e-06, No Iterations 4
ExecutionTime = 93.97673 s  ClockTime = 94 s

forces forceCoeffs1 output:
    sum of forces:
        pressure : (1.37827068 -0.00162625878 36.1094093)
        viscous  : (0.735326274 3.45206542e-05 0.0367933002)
        porous   : (0 0 0)
    sum of moments:
        pressure : (-0.00177105428 18.693401 0.00110932309)
        viscous  : (-1.21165566e-05 0.0262173775 -8.75859533e-05)
        porous   : (0 0 0)

Time = 51

smoothSolver:  Solving for Ux, Initial residual = 0.000347008923, Final residual = 2.27294409e-05, No Iterations 5
smoothSolver:  Solving for Uy, Initial residual = 0.0121799211, Final residual = 0.00108632064, No Iterations 4
smoothSolver:  Solving for Uz, Initial residual = 0.00349927315, Final residual = 0.000245489114, No Iterations 5
GAMG:  Solving for p, Initial residual = 0.00208209581, Final residual = 1.0054825e-05, No Iterations 4
time step continuity errors : sum local = 9.79279505e-06, global = -1.48989998e-06, cumulative = 0.000138646295
smoothSolver:  Solving for omega, Initial residual = 1.65576059e-05, Final residual = 1.02710863e-06, No Iterations 4
smoothSolver:  Solving for k, Initial residual = 0.000117863015, Final residual = 9.18866565e-06, No Iterations 4
ExecutionTime = 95.699501 s  ClockTime = 96 s

Time = 52

smoothSolver:  Solving for Ux, Initial residual = 0.000333098803, Final residual = 2.24132313e-05, No Iterations 5
smoothSolver:  Solving for Uy, Initial residual = 0.0119577137, Final residual = 0.00108923785, No Iterations 4
smoothSolver:  Solving for Uz, Initial residual = 0.00340874651, Final residual = 0.000240466966, No Iterations 5
GAMG:  Solving for p, Initial residual = 0.0019815116, Final residual = 1.01172789e-05, No Iterations 4
time step continuity errors : sum local = 9.85315226e-06, global = -1.97966592e-06, cumulative = 0.000136666629
smoothSolver:  Solving for omega, Initial residual = 1.58957186e-05, Final residual = 9.84570743e-07, No Iterations 4
smoothSolver:  Solving for k, Initial residual = 0.000114629005, Final residual = 8.98189548e-06, No Iterations 4
ExecutionTime = 97.390615 s  ClockTime = 98 s

Time = 53

smoothSolver:  Solving for Ux, Initial residual = 0.000326527887, Final residual = 2.29003292e-05, No Iterations 5
smoothSolver:  Solving for Uy, Initial residual = 0.0117955817, Final residual = 0.00108562765, No Iterations 4
smoothSolver:  Solving for Uz, Initial residual = 0.00333615713, Final residual = 0.000236231282, No Iterations 5
GAMG:  Solving for p, Initial residual = 0.00192912134, Final residual = 9.72838593e-06, No Iterations 4
time step continuity errors : sum local = 9.43300469e-06, global = -1.65114831e-06, cumulative = 0.000135015481
smoothSolver:  Solving for omega, Initial residual = 1.5259989e-05, Final residual = 9.46051199e-07, No Iterations 4
smoothSolver:  Solving for k, Initial residual = 0.000110909479, Final residual = 8.73802488e-06, No Iterations 4
ExecutionTime = 99.075156 s  ClockTime = 99 s

Time = 54

smoothSolver:  Solving for Ux, Initial residual = 0.000321483058, Final residual = 2.32903734e-05, No Iterations 5
smoothSolver:  Solving for Uy, Initial residual = 0.011527436, Final residual = 0.00105501987, No Iterations 4
smoothSolver:  Solving for Uz, Initial residual = 0.00331752433, Final residual = 0.00024369412, No Iterations 5
GAMG:  Solving for p, Initial residual = 0.00186284441, Final residual = 9.10885949e-06, No Iterations 4
time step continuity errors : sum local = 8.78630403e-06, global = -7.454237e-07, cumulative = 0.000134270057
smoothSolver:  Solving for omega, Initial residual = 1.47753671e-05, Final residual = 9.06090186e-07, No Iterations 4
smoothSolver:  Solving for k, Initial residual = 0.000107229086, Final residual = 8.45091254e-06, No Iterations 4
ExecutionTime = 100.768567 s  ClockTime = 101 s

Time = 55

smoothSolver:  Solving for Ux, Initial residual = 0.000317830511, Final residual = 2.34063188e-05, No Iterations 5
smoothSolver:  Solving for Uy, Initial residual = 0.0111961874, Final residual = 0.00101210656, No Iterations 4
smoothSolver:  Solving for Uz, Initial residual = 0.00336063331, Final residual = 0.000253790114, No Iterations 5
GAMG:  Solving for p, Initial residual = 0.00175145374, Final residual = 8.74700001e-06, No Iterations 4
time step continuity errors : sum local = 8.41493238e-06, global = -2.92662897e-07, cumulative = 0.000133977394
smoothSolver:  Solving for omega, Initial residual = 1.43150323e-05, Final residual = 8.67784934e-07, No Iterations 4
smoothSolver:  Solving for k, Initial residual = 0.000103637997, Final residual = 8.1326093e-06, No Iterations 4
ExecutionTime = 102.461335 s  ClockTime = 103 s

Time = 56

smoothSolver:  Solving for Ux, Initial residual = 0.000318575162, Final residual = 2.37303877e-05, No Iterations 5
smoothSolver:  Solving for Uy, Initial residual = 0.0109457528, Final residual = 0.000982816052, No Iterations 4
smoothSolver:  Solving for Uz, Initial residual = 0.00338963483, Final residual = 0.000261290772, No Iterations 5
GAMG:  Solving for p, Initial residual = 0.00164978024, Final residual = 8.45171716e-06, No Iterations 4
time step continuity errors : sum local = 8.12959468e-06, global = -7.03426295e-07, cumulative = 0.000133273968
smoothSolver:  Solving for omega, Initial residual = 1.38784252e-05, Final residual = 8.3469133e-07, No Iterations 4
smoothSolver:  Solving for k, Initial residual = 9.99670068e-05, Final residual = 7.80650964e-06, No Iterations 4
ExecutionTime = 104.172308 s  ClockTime = 104 s

Time = 57

smoothSolver:  Solving for Ux, Initial residual = 0.000322518371, Final residual = 2.45366227e-05, No Iterations 5
smoothSolver:  Solving for Uy, Initial residual = 0.0107982441, Final residual = 0.000977686395, No Iterations 4
smoothSolver:  Solving for Uz, Initial residual = 0.0034085523, Final residual = 0.000266546694, No Iterations 5
GAMG:  Solving for p, Initial residual = 0.00157798765, Final residual = 8.52745702e-06, No Iterations 4
time step continuity errors : sum local = 8.2081933e-06, global = -1.46542276e-06, cumulative = 0.000131808545
smoothSolver:  Solving for omega, Initial residual = 1.35111593e-05, Final residual = 8.04643341e-07, No Iterations 4
smoothSolver:  Solving for k, Initial residual = 9.62808453e-05, Final residual = 7.48055769e-06, No Iterations 4
ExecutionTime = 105.888096 s  ClockTime = 106 s

Time = 58

smoothSolver:  Solving for Ux, Initial residual = 0.000325768046, Final residual = 2.51958057e-05, No Iterations 5
smoothSolver:  Solving for Uy, Initial residual = 0.0106673253, Final residual = 0.000974578046, No Iterations 4
smoothSolver:  Solving for Uz, Initial residual = 0.00346007825, Final residual = 0.000273694433, No Iterations 5
GAMG:  Solving for p, Initial residual = 0.00151524012, Final residual = 8.77718262e-06, No Iterations 4
time step continuity errors : sum local = 8.44658667e-06, global = -2.03501373e-06, cumulative = 0.000129773532
smoothSolver:  Solving for omega, Initial residual = 1.32861103e-05, Final residual = 7.78895281e-07, No Iterations 4
smoothSolver:  Solving for k, Initial residual = 9.26106778e-05, Final residual = 7.15818792e-06, No Iterations 4
ExecutionTime = 107.58843 s  ClockTime = 108 s

Time = 59

smoothSolver:  Solving for Ux, Initial residual = 0.000322418151, Final residual = 2.53067644e-05, No Iterations 5
smoothSolver:  Solving for Uy, Initial residual = 0.0105232977, Final residual = 0.000967052037, No Iterations 4
smoothSolver:  Solving for Uz, Initial residual = 0.00352100487, Final residual = 0.000280015888, No Iterations 5
GAMG:  Solving for p, Initial residual = 0.00144456086, Final residual = 8.58229004e-06, No Iterations 4
time step continuity errors : sum local = 8.24202424e-06, global = -2.16186126e-06, cumulative = 0.00012761167
smoothSolver:  Solving for omega, Initial residual = 1.31296745e-05, Final residual = 7.55919893e-07, No Iterations 4
smoothSolver:  Solving for k, Initial residual = 8.93106174e-05, Final residual = 6.860654e-06, No Iterations 4
ExecutionTime = 109.281116 s  ClockTime = 109 s

Time = 60

smoothSolver:  Solving for Ux, Initial residual = 0.000316406704, Final residual = 2.51521933e-05, No Iterations 5
smoothSolver:  Solving for Uy, Initial residual = 0.0103656312, Final residual = 0.000953422308, No Iterations 4
smoothSolver:  Solving for Uz, Initial residual = 0.00355253571, Final residual = 0.000279777424, No Iterations 5
GAMG:  Solving for p, Initial residual = 0.00137169974, Final residual = 7.94097998e-06, No Iterations 4
time step continuity errors : sum local = 7.60174604e-06, global = -1.94917693e-06, cumulative = 0.000125662494
smoothSolver:  Solving for omega, Initial residual = 1.29672471e-05, Final residual = 7.36312595e-07, No Iterations 4
smoothSolver:  Solving for k, Initial residual = 8.65820728e-05, Final residual = 6.55847805e-06, No Iterations 4
ExecutionTime = 110.989348 s  ClockTime = 111 s

forces forceCoeffs1 output:
    sum of forces:
        pressure : (1.10693485 -0.00105998801 32.544426)
        viscous  : (0.7745404 0.000312644331 0.0297072845)
        porous   : (0 0 0)
    sum of moments:
        pressure : (-0.00564348954 17.0120295 0.000680267421)
        viscous  : (-2.43954678e-05 0.0233841513 -0.000304559155)
        porous   : (0 0 0)

Time = 61

smoothSolver:  Solving for Ux, Initial residual = 0.000309291039, Final residual = 2.51004645e-05, No Iterations 5
smoothSolver:  Solving for Uy, Initial residual = 0.0101887141, Final residual = 0.000931297395, No Iterations 4
smoothSolver:  Solving for Uz, Initial residual = 0.00353882653, Final residual = 0.000272037299, No Iterations 5
GAMG:  Solving for p, Initial residual = 0.00131601424, Final residual = 7.11053876e-06, No Iterations 4
time step continuity errors : sum local = 6.78596636e-06, global = -1.59033983e-06, cumulative = 0.000124072154
smoothSolver:  Solving for omega, Initial residual = 1.28441383e-05, Final residual = 7.26921366e-07, No Iterations 4
smoothSolver:  Solving for k, Initial residual = 8.42286582e-05, Final residual = 6.26144992e-06, No Iterations 4
ExecutionTime = 112.71732 s  ClockTime = 113 s

Time = 62

smoothSolver:  Solving for Ux, Initial residual = 0.000304851414, Final residual = 2.53074696e-05, No Iterations 5
smoothSolver:  Solving for Uy, Initial residual = 0.00996585759, Final residual = 0.000910121025, No Iterations 4
smoothSolver:  Solving for Uz, Initial residual = 0.00349992666, Final residual = 0.000261108912, No Iterations 5
GAMG:  Solving for p, Initial residual = 0.0012616377, Final residual = 6.28303418e-06, No Iterations 4
time step continuity errors : sum local = 5.98377398e-06, global = -1.27256588e-06, cumulative = 0.000122799588
smoothSolver:  Solving for omega, Initial residual = 1.27362044e-05, Final residual = 7.25581967e-07, No Iterations 4
smoothSolver:  Solving for k, Initial residual = 8.22177372e-05, Final residual = 5.96364044e-06, No Iterations 4
ExecutionTime = 114.42229 s  ClockTime = 115 s

Time = 63

smoothSolver:  Solving for Ux, Initial residual = 0.000301089779, Final residual = 2.5651003e-05, No Iterations 5
smoothSolver:  Solving for Uy, Initial residual = 0.00978828956, Final residual = 0.000912680652, No Iterations 4
smoothSolver:  Solving for Uz, Initial residual = 0.00343613084, Final residual = 0.000247936043, No Iterations 5
GAMG:  Solving for p, Initial residual = 0.00121728296, Final residual = 5.67768955e-06, No Iterations 4
time step continuity errors : sum local = 5.40083944e-06, global = -1.08482544e-06, cumulative = 0.000121714762
smoothSolver:  Solving for omega, Initial residual = 1.26369301e-05, Final residual = 7.26804033e-07, No Iterations 4
smoothSolver:  Solving for k, Initial residual = 8.04561046e-05, Final residual = 5.68265145e-06, No Iterations 4
ExecutionTime = 116.412832 s  ClockTime = 117 s

Time = 64

smoothSolver:  Solving for Ux, Initial residual = 0.000296953364, Final residual = 2.57339967e-05, No Iterations 5
smoothSolver:  Solving for Uy, Initial residual = 0.00979123253, Final residual = 0.000957302136, No Iterations 4
smoothSolver:  Solving for Uz, Initial residual = 0.00332659409, Final residual = 0.0002308821, No Iterations 5
GAMG:  Solving for p, Initial residual = 0.00117894502, Final residual = 5.21802301e-06, No Iterations 4
time step continuity errors : sum local = 4.959246e-06, global = -9.44390612e-07, cumulative = 0.000120770372
smoothSolver:  Solving for omega, Initial residual = 1.25021934e-05, Final residual = 7.24264295e-07, No Iterations 4
smoothSolver:  Solving for k, Initial residual = 7.86856411e-05, Final residual = 5.44616531e-06, No Iterations 4
ExecutionTime = 118.288409 s  ClockTime = 119 s

Time = 65

smoothSolver:  Solving for Ux, Initial residual = 0.000295965846, Final residual = 2.53373311e-05, No Iterations 5
smoothSolver:  Solving for Uy, Initial residual = 0.0099883464, Final residual = 0.000604984911, No Iterations 5
smoothSolver:  Solving for Uz, Initial residual = 0.00316917756, Final residual = 0.000213095716, No Iterations 5
GAMG:  Solving for p, Initial residual = 0.00114143512, Final residual = 5.15637284e-06, No Iterations 4
time step continuity errors : sum local = 4.89696607e-06, global = -7.61717486e-07, cumulative = 0.000120008654
smoothSolver:  Solving for omega, Initial residual = 1.23547898e-05, Final residual = 7.21816484e-07, No Iterations 4
smoothSolver:  Solving for k, Initial residual = 7.6703343e-05, Final residual = 5.24170753e-06, No Iterations 4
ExecutionTime = 120.008255 s  ClockTime = 120 s

Time = 66

smoothSolver:  Solving for Ux, Initial residual = 0.000295587823, Final residual = 2.44765457e-05, No Iterations 5
smoothSolver:  Solving for Uy, Initial residual = 0.0102479072, Final residual = 0.000656403934, No Iterations 5
smoothSolver:  Solving for Uz, Initial residual = 0.00300436765, Final residual = 0.000206915252, No Iterations 5
GAMG:  Solving for p, Initial residual = 0.00110669716, Final residual = 5.13535918e-06, No Iterations 4
time step continuity errors : sum local = 4.87430272e-06, global = -5.2543527e-07, cumulative = 0.000119483219
smoothSolver:  Solving for omega, Initial residual = 1.22635157e-05, Final residual = 7.23204495e-07, No Iterations 4
smoothSolver:  Solving for k, Initial residual = 7.46824688e-05, Final residual = 5.05057426e-06, No Iterations 4
ExecutionTime = 121.716731 s  ClockTime = 122 s

Time = 67

smoothSolver:  Solving for Ux, Initial residual = 0.000298167867, Final residual = 2.36926198e-05, No Iterations 5
smoothSolver:  Solving for Uy, Initial residual = 0.0105886764, Final residual = 0.000697453964, No Iterations 5
smoothSolver:  Solving for Uz, Initial residual = 0.00286345218, Final residual = 0.000212661484, No Iterations 5
GAMG:  Solving for p, Initial residual = 0.00109569673, Final residual = 5.27759422e-06, No Iterations 4
time step continuity errors : sum local = 5.00785125e-06, global = -3.1591689e-07, cumulative = 0.000119167302
smoothSolver:  Solving for omega, Initial residual = 1.21554055e-05, Final residual = 7.26709393e-07, No Iterations 4
smoothSolver:  Solving for k, Initial residual = 7.23574588e-05, Final residual = 4.86788934e-06, No Iterations 4
ExecutionTime = 123.43116 s  ClockTime = 124 s

Time = 68

smoothSolver:  Solving for Ux, Initial residual = 0.00031938526, Final residual = 2.54143422e-05, No Iterations 5
smoothSolver:  Solving for Uy, Initial residual = 0.0108541357, Final residual = 0.000724152927, No Iterations 5
smoothSolver:  Solving for Uz, Initial residual = 0.00289851565, Final residual = 0.00024888706, No Iterations 5
GAMG:  Solving for p, Initial residual = 0.00109627979, Final residual = 5.67459335e-06, No Iterations 4
time step continuity errors : sum local = 5.38334664e-06, global = -1.02155432e-07, cumulative = 0.000119065147
smoothSolver:  Solving for omega, Initial residual = 1.19842118e-05, Final residual = 7.28490033e-07, No Iterations 4
smoothSolver:  Solving for k, Initial residual = 6.97576989e-05, Final residual = 4.68613917e-06, No Iterations 4
ExecutionTime = 125.165765 s  ClockTime = 125 s

Time = 69

smoothSolver:  Solving for Ux, Initial residual = 0.000345444288, Final residual = 2.79038593e-05, No Iterations 5
smoothSolver:  Solving for Uy, Initial residual = 0.0110231822, Final residual = 0.000732755231, No Iterations 5
smoothSolver:  Solving for Uz, Initial residual = 0.00311430675, Final residual = 0.000302043383, No Iterations 5
GAMG:  Solving for p, Initial residual = 0.00109166692, Final residual = 6.25771576e-06, No Iterations 4
time step continuity errors : sum local = 5.93436459e-06, global = 1.5321436e-07, cumulative = 0.000119218361
smoothSolver:  Solving for omega, Initial residual = 1.17483606e-05, Final residual = 7.26055187e-07, No Iterations 4
smoothSolver:  Solving for k, Initial residual = 6.72385729e-05, Final residual = 4.49091327e-06, No Iterations 4
ExecutionTime = 126.884531 s  ClockTime = 127 s

Time = 70

smoothSolver:  Solving for Ux, Initial residual = 0.000367436823, Final residual = 2.98556555e-05, No Iterations 5
smoothSolver:  Solving for Uy, Initial residual = 0.0110582448, Final residual = 0.000723350004, No Iterations 5
smoothSolver:  Solving for Uz, Initial residual = 0.00348207881, Final residual = 0.00022472428, No Iterations 6
GAMG:  Solving for p, Initial residual = 0.0010857009, Final residual = 6.78416717e-06, No Iterations 4
time step continuity errors : sum local = 6.43042329e-06, global = 4.1929427e-07, cumulative = 0.000119637655
smoothSolver:  Solving for omega, Initial residual = 1.15050183e-05, Final residual = 7.182469e-07, No Iterations 4
smoothSolver:  Solving for k, Initial residual = 6.47612901e-05, Final residual = 4.26322037e-06, No Iterations 4
ExecutionTime = 128.610773 s  ClockTime = 129 s

forces forceCoeffs1 output:
    sum of forces:
        pressure : (1.25505204 0.00194586606 33.7513072)
        viscous  : (0.794940466 5.09387633e-05 0.0248536398)
        porous   : (0 0 0)
    sum of moments:
        pressure : (0.000286148654 17.3367965 -0.00186820482)
        viscous  : (-2.24557648e-05 0.0212372944 -6.93313811e-05)
        porous   : (0 0 0)

Time = 71

smoothSolver:  Solving for Ux, Initial residual = 0.000383520089, Final residual = 3.11316986e-05, No Iterations 5
smoothSolver:  Solving for Uy, Initial residual = 0.0109952185, Final residual = 0.000703144476, No Iterations 5
smoothSolver:  Solving for Uz, Initial residual = 0.00388460662, Final residual = 0.000387299486, No Iterations 5
GAMG:  Solving for p, Initial residual = 0.00107368466, Final residual = 6.67910518e-06, No Iterations 4
time step continuity errors : sum local = 6.32772644e-06, global = 6.59751771e-07, cumulative = 0.000120297407
smoothSolver:  Solving for omega, Initial residual = 1.12563656e-05, Final residual = 7.03961576e-07, No Iterations 4
smoothSolver:  Solving for k, Initial residual = 6.21929244e-05, Final residual = 4.02531296e-06, No Iterations 4
ExecutionTime = 130.340202 s  ClockTime = 131 s

Time = 72

smoothSolver:  Solving for Ux, Initial residual = 0.000386387234, Final residual = 3.11948844e-05, No Iterations 5
smoothSolver:  Solving for Uy, Initial residual = 0.0107851297, Final residual = 0.000672020154, No Iterations 5
smoothSolver:  Solving for Uz, Initial residual = 0.0042701832, Final residual = 0.000408705444, No Iterations 5
GAMG:  Solving for p, Initial residual = 0.00104491079, Final residual = 6.35930056e-06, No Iterations 4
time step continuity errors : sum local = 6.02508641e-06, global = 8.16570593e-07, cumulative = 0.000121113978
smoothSolver:  Solving for omega, Initial residual = 1.0963601e-05, Final residual = 6.8403643e-07, No Iterations 4
smoothSolver:  Solving for k, Initial residual = 5.93748448e-05, Final residual = 3.79600177e-06, No Iterations 4
ExecutionTime = 132.038954 s  ClockTime = 132 s

Time = 73

smoothSolver:  Solving for Ux, Initial residual = 0.000377811126, Final residual = 3.00970731e-05, No Iterations 5
smoothSolver:  Solving for Uy, Initial residual = 0.0104495094, Final residual = 0.000631802075, No Iterations 5
smoothSolver:  Solving for Uz, Initial residual = 0.00455384065, Final residual = 0.000414948492, No Iterations 5
GAMG:  Solving for p, Initial residual = 0.000998443172, Final residual = 5.94202482e-06, No Iterations 4
time step continuity errors : sum local = 5.63433134e-06, global = 8.35120579e-07, cumulative = 0.000121949098
smoothSolver:  Solving for omega, Initial residual = 1.05995e-05, Final residual = 6.58469344e-07, No Iterations 4
smoothSolver:  Solving for k, Initial residual = 5.66621726e-05, Final residual = 3.57747908e-06, No Iterations 4
ExecutionTime = 133.751622 s  ClockTime = 134 s

Time = 74

smoothSolver:  Solving for Ux, Initial residual = 0.000362129011, Final residual = 2.81993093e-05, No Iterations 5
smoothSolver:  Solving for Uy, Initial residual = 0.0100462714, Final residual = 0.000589419657, No Iterations 5
smoothSolver:  Solving for Uz, Initial residual = 0.00470821207, Final residual = 0.000407331297, No Iterations 5
GAMG:  Solving for p, Initial residual = 0.000944168711, Final residual = 5.34070895e-06, No Iterations 4
time step continuity errors : sum local = 5.07102537e-06, global = 7.03413267e-07, cumulative = 0.000122652512
smoothSolver:  Solving for omega, Initial residual = 1.02091201e-05, Final residual = 6.30861045e-07, No Iterations 4
smoothSolver:  Solving for k, Initial residual = 5.41054574e-05, Final residual = 3.37028188e-06, No Iterations 4
ExecutionTime = 135.458542 s  ClockTime = 136 s

Time = 75

smoothSolver:  Solving for Ux, Initial residual = 0.000340596496, Final residual = 2.5953891e-05, No Iterations 5
smoothSolver:  Solving for Uy, Initial residual = 0.00956360727, Final residual = 0.000952261011, No Iterations 4
smoothSolver:  Solving for Uz, Initial residual = 0.00469734415, Final residual = 0.000384927344, No Iterations 5
GAMG:  Solving for p, Initial residual = 0.000887902705, Final residual = 4.71488339e-06, No Iterations 4
time step continuity errors : sum local = 4.48348412e-06, global = 4.59730397e-07, cumulative = 0.000123112242
smoothSolver:  Solving for omega, Initial residual = 9.78901757e-06, Final residual = 6.0000689e-07, No Iterations 4
smoothSolver:  Solving for k, Initial residual = 5.18190616e-05, Final residual = 3.18770285e-06, No Iterations 4
ExecutionTime = 137.154076 s  ClockTime = 137 s

Time = 76

smoothSolver:  Solving for Ux, Initial residual = 0.000318461011, Final residual = 2.3718393e-05, No Iterations 5
smoothSolver:  Solving for Uy, Initial residual = 0.00912590717, Final residual = 0.000896636332, No Iterations 4
smoothSolver:  Solving for Uz, Initial residual = 0.00451086982, Final residual = 0.000350269723, No Iterations 5
GAMG:  Solving for p, Initial residual = 0.000840829143, Final residual = 4.27323778e-06, No Iterations 4
time step continuity errors : sum local = 4.06816708e-06, global = 1.83662987e-07, cumulative = 0.000123295905
smoothSolver:  Solving for omega, Initial residual = 9.35743922e-06, Final residual = 5.66516372e-07, No Iterations 4
smoothSolver:  Solving for k, Initial residual = 4.98438245e-05, Final residual = 3.0441238e-06, No Iterations 4
ExecutionTime = 138.856301 s  ClockTime = 139 s

Time = 77

smoothSolver:  Solving for Ux, Initial residual = 0.000298638455, Final residual = 2.21047366e-05, No Iterations 5
smoothSolver:  Solving for Uy, Initial residual = 0.00868188785, Final residual = 0.000844542073, No Iterations 4
smoothSolver:  Solving for Uz, Initial residual = 0.00420094884, Final residual = 0.000309456408, No Iterations 5
GAMG:  Solving for p, Initial residual = 0.000794114292, Final residual = 3.93715122e-06, No Iterations 4
time step continuity errors : sum local = 3.75020681e-06, global = -6.69048134e-08, cumulative = 0.000123229
smoothSolver:  Solving for omega, Initial residual = 8.93222877e-06, Final residual = 5.33446477e-07, No Iterations 4
smoothSolver:  Solving for k, Initial residual = 4.835188e-05, Final residual = 2.93868915e-06, No Iterations 4
ExecutionTime = 140.55887 s  ClockTime = 141 s

Time = 78

smoothSolver:  Solving for Ux, Initial residual = 0.000276721461, Final residual = 2.06179394e-05, No Iterations 5
smoothSolver:  Solving for Uy, Initial residual = 0.00823531232, Final residual = 0.000795754001, No Iterations 4
smoothSolver:  Solving for Uz, Initial residual = 0.00383272233, Final residual = 0.000266636586, No Iterations 5
GAMG:  Solving for p, Initial residual = 0.000755510326, Final residual = 3.45836568e-06, No Iterations 4
time step continuity errors : sum local = 3.29408356e-06, global = -2.64748032e-07, cumulative = 0.000122964252
smoothSolver:  Solving for omega, Initial residual = 8.55082509e-06, Final residual = 5.04396358e-07, No Iterations 4
smoothSolver:  Solving for k, Initial residual = 4.7272484e-05, Final residual = 2.86477595e-06, No Iterations 4
ExecutionTime = 142.264854 s  ClockTime = 142 s

Time = 79

smoothSolver:  Solving for Ux, Initial residual = 0.00025304795, Final residual = 1.9288638e-05, No Iterations 5
smoothSolver:  Solving for Uy, Initial residual = 0.00782252706, Final residual = 0.000755130289, No Iterations 4
smoothSolver:  Solving for Uz, Initial residual = 0.00344439483, Final residual = 0.000224514028, No Iterations 5
GAMG:  Solving for p, Initial residual = 0.000726598131, Final residual = 2.90692072e-06, No Iterations 4
time step continuity errors : sum local = 2.76778151e-06, global = -3.68864012e-07, cumulative = 0.000122595388
smoothSolver:  Solving for omega, Initial residual = 8.2352809e-06, Final residual = 4.81175865e-07, No Iterations 4
smoothSolver:  Solving for k, Initial residual = 4.6370748e-05, Final residual = 2.81420284e-06, No Iterations 4
ExecutionTime = 143.974994 s  ClockTime = 144 s

Time = 80

smoothSolver:  Solving for Ux, Initial residual = 0.000234196483, Final residual = 1.8216562e-05, No Iterations 5
smoothSolver:  Solving for Uy, Initial residual = 0.00747700443, Final residual = 0.000726292893, No Iterations 4
smoothSolver:  Solving for Uz, Initial residual = 0.00305692476, Final residual = 0.000185277935, No Iterations 5
GAMG:  Solving for p, Initial residual = 0.000695648669, Final residual = 2.49873418e-06, No Iterations 4
time step continuity errors : sum local = 2.37816611e-06, global = -4.09928603e-07, cumulative = 0.000122185459
smoothSolver:  Solving for omega, Initial residual = 8.00380768e-06, Final residual = 4.64847352e-07, No Iterations 4
smoothSolver:  Solving for k, Initial residual = 4.55697218e-05, Final residual = 2.81469799e-06, No Iterations 4
ExecutionTime = 145.676752 s  ClockTime = 146 s

forces forceCoeffs1 output:
    sum of forces:
        pressure : (1.17423099 0.000946109221 35.4792919)
        viscous  : (0.811292974 -0.000315959166 0.0220362506)
        porous   : (0 0 0)
    sum of moments:
        pressure : (0.00262568547 18.3235621 -0.000859841498)
        viscous  : (-7.66467653e-06 0.0206811512 0.000219574138)
        porous   : (0 0 0)

Time = 81

smoothSolver:  Solving for Ux, Initial residual = 0.000220867469, Final residual = 1.69985917e-05, No Iterations 5
smoothSolver:  Solving for Uy, Initial residual = 0.00722009173, Final residual = 0.00070773967, No Iterations 4
smoothSolver:  Solving for Uz, Initial residual = 0.00265976944, Final residual = 0.000154135986, No Iterations 5
GAMG:  Solving for p, Initial residual = 0.000667896541, Final residual = 6.58625437e-06, No Iterations 3
time step continuity errors : sum local = 6.2673307e-06, global = -6.74772133e-07, cumulative = 0.000121510687
smoothSolver:  Solving for omega, Initial residual = 7.81933828e-06, Final residual = 4.56000637e-07, No Iterations 4
smoothSolver:  Solving for k, Initial residual = 4.48932181e-05, Final residual = 2.87205365e-06, No Iterations 4
ExecutionTime = 147.381433 s  ClockTime = 148 s

Time = 82

smoothSolver:  Solving for Ux, Initial residual = 0.000212074946, Final residual = 1.5683226e-05, No Iterations 5
smoothSolver:  Solving for Uy, Initial residual = 0.00700263984, Final residual = 0.000691242912, No Iterations 4
smoothSolver:  Solving for Uz, Initial residual = 0.00228901915, Final residual = 0.00013391661, No Iterations 5
GAMG:  Solving for p, Initial residual = 0.000637896965, Final residual = 2.29577081e-06, No Iterations 4
time step continuity errors : sum local = 2.18516435e-06, global = -4.73223779e-07, cumulative = 0.000121037464
smoothSolver:  Solving for omega, Initial residual = 7.6638794e-06, Final residual = 4.53558724e-07, No Iterations 4
smoothSolver:  Solving for k, Initial residual = 4.46745711e-05, Final residual = 2.9830385e-06, No Iterations 4
ExecutionTime = 149.105284 s  ClockTime = 149 s

Time = 83

smoothSolver:  Solving for Ux, Initial residual = 0.00020376315, Final residual = 1.43195619e-05, No Iterations 5
smoothSolver:  Solving for Uy, Initial residual = 0.00680845747, Final residual = 0.000675946464, No Iterations 4
smoothSolver:  Solving for Uz, Initial residual = 0.0020007272, Final residual = 0.000121800455, No Iterations 5
GAMG:  Solving for p, Initial residual = 0.000604872761, Final residual = 2.28401224e-06, No Iterations 4
time step continuity errors : sum local = 2.17465466e-06, global = -4.93491039e-07, cumulative = 0.000120543972
smoothSolver:  Solving for omega, Initial residual = 7.57156741e-06, Final residual = 4.56090788e-07, No Iterations 4
smoothSolver:  Solving for k, Initial residual = 4.49891522e-05, Final residual = 3.14096665e-06, No Iterations 4
ExecutionTime = 150.808352 s  ClockTime = 151 s

Time = 84

smoothSolver:  Solving for Ux, Initial residual = 0.000198699962, Final residual = 1.34477943e-05, No Iterations 5
smoothSolver:  Solving for Uy, Initial residual = 0.00660316191, Final residual = 0.00065413202, No Iterations 4
smoothSolver:  Solving for Uz, Initial residual = 0.00180549408, Final residual = 0.000119100497, No Iterations 5
GAMG:  Solving for p, Initial residual = 0.000574268852, Final residual = 2.1995094e-06, No Iterations 4
time step continuity errors : sum local = 2.09466902e-06, global = -4.74815591e-07, cumulative = 0.000120069157
smoothSolver:  Solving for omega, Initial residual = 7.53998098e-06, Final residual = 4.63264087e-07, No Iterations 4
smoothSolver:  Solving for k, Initial residual = 4.58170738e-05, Final residual = 3.35351111e-06, No Iterations 4
ExecutionTime = 152.506125 s  ClockTime = 153 s

Time = 85

smoothSolver:  Solving for Ux, Initial residual = 0.000192335644, Final residual = 1.27915145e-05, No Iterations 5
smoothSolver:  Solving for Uy, Initial residual = 0.00638909396, Final residual = 0.000628579182, No Iterations 4
smoothSolver:  Solving for Uz, Initial residual = 0.001689946, Final residual = 0.000120564554, No Iterations 5
GAMG:  Solving for p, Initial residual = 0.000547380122, Final residual = 2.10176213e-06, No Iterations 4
time step continuity errors : sum local = 2.00160583e-06, global = -4.29605543e-07, cumulative = 0.000119639551
smoothSolver:  Solving for omega, Initial residual = 7.55212263e-06, Final residual = 4.74126045e-07, No Iterations 4
smoothSolver:  Solving for k, Initial residual = 4.68991162e-05, Final residual = 3.6070455e-06, No Iterations 4
ExecutionTime = 154.205746 s  ClockTime = 154 s

Time = 86

smoothSolver:  Solving for Ux, Initial residual = 0.000183295575, Final residual = 1.19643481e-05, No Iterations 5
smoothSolver:  Solving for Uy, Initial residual = 0.00618862773, Final residual = 0.000608679887, No Iterations 4
smoothSolver:  Solving for Uz, Initial residual = 0.00163572305, Final residual = 0.000118804982, No Iterations 5
GAMG:  Solving for p, Initial residual = 0.000521874721, Final residual = 2.06539492e-06, No Iterations 4
time step continuity errors : sum local = 1.96664224e-06, global = -3.61779591e-07, cumulative = 0.000119277772
smoothSolver:  Solving for omega, Initial residual = 7.59470125e-06, Final residual = 4.8746107e-07, No Iterations 4
smoothSolver:  Solving for k, Initial residual = 4.81129497e-05, Final residual = 3.87467513e-06, No Iterations 4
ExecutionTime = 156.155623 s  ClockTime = 156 s

Time = 87

smoothSolver:  Solving for Ux, Initial residual = 0.00017335235, Final residual = 1.1131327e-05, No Iterations 5
smoothSolver:  Solving for Uy, Initial residual = 0.00605043238, Final residual = 0.000350609535, No Iterations 5
smoothSolver:  Solving for Uz, Initial residual = 0.00161922646, Final residual = 0.000117406207, No Iterations 5
GAMG:  Solving for p, Initial residual = 0.000500534026, Final residual = 2.11243798e-06, No Iterations 4
time step continuity errors : sum local = 2.01102823e-06, global = -2.70647748e-07, cumulative = 0.000119007124
smoothSolver:  Solving for omega, Initial residual = 7.65951414e-06, Final residual = 5.02849739e-07, No Iterations 4
smoothSolver:  Solving for k, Initial residual = 4.93742325e-05, Final residual = 4.13044751e-06, No Iterations 4
ExecutionTime = 157.890963 s  ClockTime = 158 s

Time = 88

smoothSolver:  Solving for Ux, Initial residual = 0.000171633737, Final residual = 1.15408722e-05, No Iterations 5
smoothSolver:  Solving for Uy, Initial residual = 0.00594628372, Final residual = 0.000364350847, No Iterations 5
smoothSolver:  Solving for Uz, Initial residual = 0.00166333137, Final residual = 0.000127578281, No Iterations 5
GAMG:  Solving for p, Initial residual = 0.00048377018, Final residual = 2.22162072e-06, No Iterations 4
time step continuity errors : sum local = 2.11483318e-06, global = -1.72811858e-07, cumulative = 0.000118834312
smoothSolver:  Solving for omega, Initial residual = 7.73623237e-06, Final residual = 5.18844195e-07, No Iterations 4
smoothSolver:  Solving for k, Initial residual = 5.05905355e-05, Final residual = 4.35891734e-06, No Iterations 4
ExecutionTime = 159.598464 s  ClockTime = 160 s

Time = 89

smoothSolver:  Solving for Ux, Initial residual = 0.000179011223, Final residual = 1.31451519e-05, No Iterations 5
smoothSolver:  Solving for Uy, Initial residual = 0.0059442068, Final residual = 0.00038237425, No Iterations 5
smoothSolver:  Solving for Uz, Initial residual = 0.00182447339, Final residual = 0.000158321467, No Iterations 5
GAMG:  Solving for p, Initial residual = 0.000484597762, Final residual = 2.3295058e-06, No Iterations 4
time step continuity errors : sum local = 2.21781743e-06, global = -7.05711621e-08, cumulative = 0.000118763741
smoothSolver:  Solving for omega, Initial residual = 7.81296303e-06, Final residual = 5.33909651e-07, No Iterations 4
smoothSolver:  Solving for k, Initial residual = 5.15720299e-05, Final residual = 4.55844717e-06, No Iterations 4
ExecutionTime = 161.305688 s  ClockTime = 162 s

Time = 90

[...]
ExecutionTime = 594.341877 s  ClockTime = 595 s

Time = 318

smoothSolver:  Solving for Ux, Initial residual = 4.97447017e-06, Final residual = 3.25522754e-07, No Iterations 5
smoothSolver:  Solving for Uy, Initial residual = 0.000296808931, Final residual = 2.60730978e-05, No Iterations 4
smoothSolver:  Solving for Uz, Initial residual = 4.52274597e-05, Final residual = 2.89359053e-06, No Iterations 5
GAMG:  Solving for p, Initial residual = 1.20385112e-05, Final residual = 5.23236348e-08, No Iterations 5
time step continuity errors : sum local = 5.28122006e-08, global = 3.26524494e-09, cumulative = 0.000135275955
smoothSolver:  Solving for omega, Initial residual = 4.07798919e-07, Final residual = 2.21597044e-08, No Iterations 4
smoothSolver:  Solving for k, Initial residual = 1.28905596e-06, Final residual = 6.50982408e-08, No Iterations 4
ExecutionTime = 596.501876 s  ClockTime = 597 s

Time = 319

smoothSolver:  Solving for Ux, Initial residual = 4.90498719e-06, Final residual = 3.19438892e-07, No Iterations 5
smoothSolver:  Solving for Uy, Initial residual = 0.000292002642, Final residual = 2.51745009e-05, No Iterations 4
smoothSolver:  Solving for Uz, Initial residual = 4.45890355e-05, Final residual = 2.8183423e-06, No Iterations 5
GAMG:  Solving for p, Initial residual = 1.19923443e-05, Final residual = 1.1952347e-07, No Iterations 4
time step continuity errors : sum local = 1.20641087e-07, global = 4.94029477e-09, cumulative = 0.000135280895
smoothSolver:  Solving for omega, Initial residual = 4.01788455e-07, Final residual = 2.14134949e-08, No Iterations 4
smoothSolver:  Solving for k, Initial residual = 1.26053082e-06, Final residual = 6.44835822e-08, No Iterations 4
ExecutionTime = 598.654903 s  ClockTime = 599 s

Time = 320

smoothSolver:  Solving for Ux, Initial residual = 4.83146777e-06, Final residual = 3.11962528e-07, No Iterations 5
smoothSolver:  Solving for Uy, Initial residual = 0.000286644354, Final residual = 2.41999861e-05, No Iterations 4
smoothSolver:  Solving for Uz, Initial residual = 4.37980778e-05, Final residual = 2.72194858e-06, No Iterations 5
GAMG:  Solving for p, Initial residual = 1.20276201e-05, Final residual = 1.18754382e-07, No Iterations 4
time step continuity errors : sum local = 1.19866328e-07, global = 6.35495486e-09, cumulative = 0.00013528725
smoothSolver:  Solving for omega, Initial residual = 3.95688998e-07, Final residual = 2.05356904e-08, No Iterations 4
smoothSolver:  Solving for k, Initial residual = 1.23198939e-06, Final residual = 6.24354428e-08, No Iterations 4
ExecutionTime = 600.950362 s  ClockTime = 601 s

forces forceCoeffs1 output:
    sum of forces:
        pressure : (1.01841793 0.000268576125 48.4293391)
        viscous  : (0.839296426 -0.00019669597 0.0273576253)
        porous   : (0 0 0)
    sum of moments:
        pressure : (-0.00213125047 25.1347112 -0.000649061189)
        viscous  : (7.60876077e-07 0.0290750816 9.6671231e-05)
        porous   : (0 0 0)

Time = 321

smoothSolver:  Solving for Ux, Initial residual = 4.76742989e-06, Final residual = 3.0338441e-07, No Iterations 5
smoothSolver:  Solving for Uy, Initial residual = 0.00028108234, Final residual = 2.34648033e-05, No Iterations 4
smoothSolver:  Solving for Uz, Initial residual = 4.32712621e-05, Final residual = 2.652021e-06, No Iterations 5
GAMG:  Solving for p, Initial residual = 1.21141319e-05, Final residual = 1.18564095e-07, No Iterations 4
time step continuity errors : sum local = 1.19676024e-07, global = 7.19878442e-09, cumulative = 0.000135294449
smoothSolver:  Solving for omega, Initial residual = 3.90654643e-07, Final residual = 1.97856618e-08, No Iterations 4
smoothSolver:  Solving for k, Initial residual = 1.20694625e-06, Final residual = 5.96935675e-08, No Iterations 4
ExecutionTime = 603.313275 s  ClockTime = 604 s

Time = 322

smoothSolver:  Solving for Ux, Initial residual = 4.701727e-06, Final residual = 2.9517589e-07, No Iterations 5
smoothSolver:  Solving for Uy, Initial residual = 0.00027569306, Final residual = 2.31078735e-05, No Iterations 4
smoothSolver:  Solving for Uz, Initial residual = 4.28300409e-05, Final residual = 2.60758418e-06, No Iterations 5
GAMG:  Solving for p, Initial residual = 1.20872021e-05, Final residual = 1.1487951e-07, No Iterations 4
time step continuity errors : sum local = 1.15958704e-07, global = 7.27148844e-09, cumulative = 0.000135301721
smoothSolver:  Solving for omega, Initial residual = 3.85999439e-07, Final residual = 1.93090522e-08, No Iterations 4
smoothSolver:  Solving for k, Initial residual = 1.18263629e-06, Final residual = 1.16028562e-07, No Iterations 3
ExecutionTime = 605.845289 s  ClockTime = 606 s

Time = 323

smoothSolver:  Solving for Ux, Initial residual = 4.62315871e-06, Final residual = 2.90034505e-07, No Iterations 5
smoothSolver:  Solving for Uy, Initial residual = 0.000270307198, Final residual = 2.29576485e-05, No Iterations 4
smoothSolver:  Solving for Uz, Initial residual = 4.23060533e-05, Final residual = 2.57976652e-06, No Iterations 5
GAMG:  Solving for p, Initial residual = 1.19675227e-05, Final residual = 1.12849082e-07, No Iterations 4
time step continuity errors : sum local = 1.13910845e-07, global = 6.70562508e-09, cumulative = 0.000135308426
smoothSolver:  Solving for omega, Initial residual = 3.80479646e-07, Final residual = 1.91035756e-08, No Iterations 4
smoothSolver:  Solving for k, Initial residual = 1.17331211e-06, Final residual = 1.12407608e-07, No Iterations 3
ExecutionTime = 607.998466 s  ClockTime = 608 s

Time = 324

smoothSolver:  Solving for Ux, Initial residual = 4.53794517e-06, Final residual = 2.87473223e-07, No Iterations 5
smoothSolver:  Solving for Uy, Initial residual = 0.000266128212, Final residual = 2.28838403e-05, No Iterations 4
smoothSolver:  Solving for Uz, Initial residual = 4.16720017e-05, Final residual = 2.5620242e-06, No Iterations 5
GAMG:  Solving for p, Initial residual = 1.17720133e-05, Final residual = 1.12773194e-07, No Iterations 4
time step continuity errors : sum local = 1.13835711e-07, global = 6.17903424e-09, cumulative = 0.000135314605
smoothSolver:  Solving for omega, Initial residual = 3.75534037e-07, Final residual = 1.91001447e-08, No Iterations 4
smoothSolver:  Solving for k, Initial residual = 1.1613429e-06, Final residual = 1.09286871e-07, No Iterations 3
ExecutionTime = 610.031288 s  ClockTime = 610 s

Time = 325

smoothSolver:  Solving for Ux, Initial residual = 4.45878924e-06, Final residual = 2.85418232e-07, No Iterations 5
smoothSolver:  Solving for Uy, Initial residual = 0.000262673501, Final residual = 2.27660601e-05, No Iterations 4
smoothSolver:  Solving for Uz, Initial residual = 4.1007719e-05, Final residual = 2.55494175e-06, No Iterations 5
GAMG:  Solving for p, Initial residual = 1.15059091e-05, Final residual = 4.90459682e-08, No Iterations 5
time step continuity errors : sum local = 4.95086541e-08, global = 4.21633986e-09, cumulative = 0.000135318822
smoothSolver:  Solving for omega, Initial residual = 3.70636628e-07, Final residual = 1.92191852e-08, No Iterations 4
smoothSolver:  Solving for k, Initial residual = 1.14926822e-06, Final residual = 1.0767392e-07, No Iterations 3
ExecutionTime = 612.10542 s  ClockTime = 612 s

Time = 326

smoothSolver:  Solving for Ux, Initial residual = 4.39539997e-06, Final residual = 2.83643929e-07, No Iterations 5
smoothSolver:  Solving for Uy, Initial residual = 0.000259620663, Final residual = 2.27690966e-05, No Iterations 4
smoothSolver:  Solving for Uz, Initial residual = 4.06048396e-05, Final residual = 2.57835518e-06, No Iterations 5
GAMG:  Solving for p, Initial residual = 1.11676082e-05, Final residual = 4.81967806e-08, No Iterations 5
time step continuity errors : sum local = 4.86521336e-08, global = 3.69830927e-09, cumulative = 0.00013532252
smoothSolver:  Solving for omega, Initial residual = 3.65502917e-07, Final residual = 1.93409761e-08, No Iterations 4
smoothSolver:  Solving for k, Initial residual = 1.13590498e-06, Final residual = 1.07612887e-07, No Iterations 3
ExecutionTime = 614.17002 s  ClockTime = 614 s

Time = 327

smoothSolver:  Solving for Ux, Initial residual = 4.33665118e-06, Final residual = 2.82634331e-07, No Iterations 5
smoothSolver:  Solving for Uy, Initial residual = 0.000255887497, Final residual = 2.26419926e-05, No Iterations 4
smoothSolver:  Solving for Uz, Initial residual = 4.01786085e-05, Final residual = 2.58099544e-06, No Iterations 5
GAMG:  Solving for p, Initial residual = 1.08745268e-05, Final residual = 4.81267021e-08, No Iterations 5
time step continuity errors : sum local = 4.85819991e-08, global = 3.18585978e-09, cumulative = 0.000135325706
smoothSolver:  Solving for omega, Initial residual = 3.60265362e-07, Final residual = 1.94465214e-08, No Iterations 4
smoothSolver:  Solving for k, Initial residual = 1.12246604e-06, Final residual = 1.08984399e-07, No Iterations 3
ExecutionTime = 616.20864 s  ClockTime = 616 s

Time = 328

smoothSolver:  Solving for Ux, Initial residual = 4.28253747e-06, Final residual = 2.81535989e-07, No Iterations 5
smoothSolver:  Solving for Uy, Initial residual = 0.000252274033, Final residual = 2.23766525e-05, No Iterations 4
smoothSolver:  Solving for Uz, Initial residual = 3.978616e-05, Final residual = 2.55277707e-06, No Iterations 5
GAMG:  Solving for p, Initial residual = 1.07016881e-05, Final residual = 4.85227388e-08, No Iterations 5
time step continuity errors : sum local = 4.89823528e-08, global = 3.19636619e-09, cumulative = 0.000135328902
smoothSolver:  Solving for omega, Initial residual = 3.55201956e-07, Final residual = 1.93602806e-08, No Iterations 4
smoothSolver:  Solving for k, Initial residual = 1.11071223e-06, Final residual = 1.10550312e-07, No Iterations 3
ExecutionTime = 618.241645 s  ClockTime = 618 s

Time = 329

smoothSolver:  Solving for Ux, Initial residual = 4.23779772e-06, Final residual = 2.79316196e-07, No Iterations 5
smoothSolver:  Solving for Uy, Initial residual = 0.000249573034, Final residual = 2.20019638e-05, No Iterations 4
smoothSolver:  Solving for Uz, Initial residual = 3.94652318e-05, Final residual = 2.50672953e-06, No Iterations 5
GAMG:  Solving for p, Initial residual = 1.07121233e-05, Final residual = 4.8273657e-08, No Iterations 5
time step continuity errors : sum local = 4.87314783e-08, global = 3.28891041e-09, cumulative = 0.000135332191
smoothSolver:  Solving for omega, Initial residual = 3.51000516e-07, Final residual = 1.89326626e-08, No Iterations 4
smoothSolver:  Solving for k, Initial residual = 1.10075607e-06, Final residual = 5.57917e-08, No Iterations 4
ExecutionTime = 620.287932 s  ClockTime = 621 s

Time = 330

smoothSolver:  Solving for Ux, Initial residual = 4.19550066e-06, Final residual = 2.75379053e-07, No Iterations 5
smoothSolver:  Solving for Uy, Initial residual = 0.000247694986, Final residual = 2.15771973e-05, No Iterations 4
smoothSolver:  Solving for Uz, Initial residual = 3.91390512e-05, Final residual = 2.45870655e-06, No Iterations 5
GAMG:  Solving for p, Initial residual = 1.0811027e-05, Final residual = 1.06850145e-07, No Iterations 4
time step continuity errors : sum local = 1.07864852e-07, global = 4.24792169e-09, cumulative = 0.000135336439
smoothSolver:  Solving for omega, Initial residual = 3.46838188e-07, Final residual = 1.82548798e-08, No Iterations 4
smoothSolver:  Solving for k, Initial residual = 1.07575881e-06, Final residual = 5.52155987e-08, No Iterations 4
ExecutionTime = 622.33726 s  ClockTime = 623 s

forces forceCoeffs1 output:
    sum of forces:
        pressure : (1.01795253 0.000382864405 48.453565)
        viscous  : (0.83934885 -0.000185307699 0.027359958)
        porous   : (0 0 0)
    sum of moments:
        pressure : (-0.00201549793 25.1476436 -0.00074353986)
        viscous  : (3.75999197e-07 0.0290909829 8.90944842e-05)
        porous   : (0 0 0)

Time = 331

smoothSolver:  Solving for Ux, Initial residual = 4.14682555e-06, Final residual = 2.70079542e-07, No Iterations 5
smoothSolver:  Solving for Uy, Initial residual = 0.000244885748, Final residual = 2.10721904e-05, No Iterations 4
smoothSolver:  Solving for Uz, Initial residual = 3.85736747e-05, Final residual = 2.38784348e-06, No Iterations 5
GAMG:  Solving for p, Initial residual = 1.098643e-05, Final residual = 1.0709876e-07, No Iterations 4
time step continuity errors : sum local = 1.08117034e-07, global = 4.69363444e-09, cumulative = 0.000135341133
smoothSolver:  Solving for omega, Initial residual = 3.42520213e-07, Final residual = 1.74845079e-08, No Iterations 4
smoothSolver:  Solving for k, Initial residual = 1.05295324e-06, Final residual = 5.34772641e-08, No Iterations 4
ExecutionTime = 624.353159 s  ClockTime = 625 s

Time = 332

smoothSolver:  Solving for Ux, Initial residual = 4.10413183e-06, Final residual = 2.63477396e-07, No Iterations 5
smoothSolver:  Solving for Uy, Initial residual = 0.000242549132, Final residual = 2.08516476e-05, No Iterations 4
smoothSolver:  Solving for Uz, Initial residual = 3.82283159e-05, Final residual = 2.33176752e-06, No Iterations 5
GAMG:  Solving for p, Initial residual = 1.11588976e-05, Final residual = 1.07632093e-07, No Iterations 4
time step continuity errors : sum local = 1.08656837e-07, global = 4.795526e-09, cumulative = 0.000135345928
smoothSolver:  Solving for omega, Initial residual = 3.38084148e-07, Final residual = 1.68221231e-08, No Iterations 4
smoothSolver:  Solving for k, Initial residual = 1.03367757e-06, Final residual = 5.10662016e-08, No Iterations 4
ExecutionTime = 626.363989 s  ClockTime = 627 s

Time = 333

smoothSolver:  Solving for Ux, Initial residual = 4.0606757e-06, Final residual = 2.57333462e-07, No Iterations 5
smoothSolver:  Solving for Uy, Initial residual = 0.000240186201, Final residual = 2.08190162e-05, No Iterations 4
smoothSolver:  Solving for Uz, Initial residual = 3.80132037e-05, Final residual = 2.28919143e-06, No Iterations 5
GAMG:  Solving for p, Initial residual = 1.12314321e-05, Final residual = 1.07160599e-07, No Iterations 4
time step continuity errors : sum local = 1.08182266e-07, global = 4.2779108e-09, cumulative = 0.000135350206
smoothSolver:  Solving for omega, Initial residual = 3.34380092e-07, Final residual = 1.64209815e-08, No Iterations 4
smoothSolver:  Solving for k, Initial residual = 1.01687283e-06, Final residual = 9.93748444e-08, No Iterations 3
ExecutionTime = 628.428741 s  ClockTime = 629 s

Time = 334

smoothSolver:  Solving for Ux, Initial residual = 4.00074043e-06, Final residual = 2.52345666e-07, No Iterations 5
smoothSolver:  Solving for Uy, Initial residual = 0.00023744527, Final residual = 2.07250749e-05, No Iterations 4
smoothSolver:  Solving for Uz, Initial residual = 3.75937294e-05, Final residual = 2.25624852e-06, No Iterations 5
GAMG:  Solving for p, Initial residual = 1.11570891e-05, Final residual = 1.02288151e-07, No Iterations 4
time step continuity errors : sum local = 1.03264653e-07, global = 3.5221227e-09, cumulative = 0.000135353728
smoothSolver:  Solving for omega, Initial residual = 3.30059784e-07, Final residual = 1.62647639e-08, No Iterations 4
smoothSolver:  Solving for k, Initial residual = 1.01002717e-06, Final residual = 9.64768011e-08, No Iterations 3
ExecutionTime = 630.710468 s  ClockTime = 631 s

Time = 335

smoothSolver:  Solving for Ux, Initial residual = 3.92972007e-06, Final residual = 2.48953748e-07, No Iterations 5
smoothSolver:  Solving for Uy, Initial residual = 0.00023427078, Final residual = 2.0537444e-05, No Iterations 4
smoothSolver:  Solving for Uz, Initial residual = 3.69552764e-05, Final residual = 2.23329274e-06, No Iterations 5
GAMG:  Solving for p, Initial residual = 1.10345497e-05, Final residual = 1.03802789e-07, No Iterations 4
time step continuity errors : sum local = 1.04794887e-07, global = 2.88565252e-09, cumulative = 0.000135356614
smoothSolver:  Solving for omega, Initial residual = 3.25348523e-07, Final residual = 1.62724289e-08, No Iterations 4
smoothSolver:  Solving for k, Initial residual = 1.00079814e-06, Final residual = 9.39399364e-08, No Iterations 3
ExecutionTime = 632.784668 s  ClockTime = 633 s

Time = 336

smoothSolver:  Solving for Ux, Initial residual = 3.852134e-06, Final residual = 2.46574704e-07, No Iterations 5
smoothSolver:  Solving for Uy, Initial residual = 0.000230892519, Final residual = 2.03022902e-05, No Iterations 4
smoothSolver:  Solving for Uz, Initial residual = 3.63297014e-05, Final residual = 2.2133438e-06, No Iterations 5
GAMG:  Solving for p, Initial residual = 1.08307196e-05, Final residual = 1.05886352e-07, No Iterations 4
time step continuity errors : sum local = 1.06899459e-07, global = 2.8159748e-09, cumulative = 0.00013535943
smoothSolver:  Solving for omega, Initial residual = 3.21369685e-07, Final residual = 1.63443227e-08, No Iterations 4
smoothSolver:  Solving for k, Initial residual = 9.90991942e-07, Final residual = 9.24770692e-08, No Iterations 3
ExecutionTime = 634.890325 s  ClockTime = 635 s

Time = 337

smoothSolver:  Solving for Ux, Initial residual = 3.78252377e-06, Final residual = 2.43896248e-07, No Iterations 5
smoothSolver:  Solving for Uy, Initial residual = 0.000226942162, Final residual = 2.00985313e-05, No Iterations 4
smoothSolver:  Solving for Uz, Initial residual = 3.58719936e-05, Final residual = 2.19865849e-06, No Iterations 5
GAMG:  Solving for p, Initial residual = 1.05468535e-05, Final residual = 4.7030045e-08, No Iterations 5
time step continuity errors : sum local = 4.74805071e-08, global = 2.49184661e-09, cumulative = 0.000135361922
smoothSolver:  Solving for omega, Initial residual = 3.1727021e-07, Final residual = 1.64499158e-08, No Iterations 4
smoothSolver:  Solving for k, Initial residual = 9.80987671e-07, Final residual = 9.1946949e-08, No Iterations 3
ExecutionTime = 636.979853 s  ClockTime = 637 s

Time = 338

smoothSolver:  Solving for Ux, Initial residual = 3.71810538e-06, Final residual = 2.41561484e-07, No Iterations 5
smoothSolver:  Solving for Uy, Initial residual = 0.000222792216, Final residual = 1.98071142e-05, No Iterations 4
smoothSolver:  Solving for Uz, Initial residual = 3.55505999e-05, Final residual = 2.20137077e-06, No Iterations 5
GAMG:  Solving for p, Initial residual = 1.01971838e-05, Final residual = 1.01180926e-07, No Iterations 4
time step continuity errors : sum local = 1.02151284e-07, global = 3.15314673e-09, cumulative = 0.000135365075
smoothSolver:  Solving for omega, Initial residual = 3.12495437e-07, Final residual = 1.65018588e-08, No Iterations 4
smoothSolver:  Solving for k, Initial residual = 9.67305014e-07, Final residual = 9.27222723e-08, No Iterations 3
ExecutionTime = 638.98884 s  ClockTime = 639 s

Time = 339

smoothSolver:  Solving for Ux, Initial residual = 3.65377408e-06, Final residual = 2.39551331e-07, No Iterations 5
smoothSolver:  Solving for Uy, Initial residual = 0.000218004301, Final residual = 1.93664806e-05, No Iterations 4
smoothSolver:  Solving for Uz, Initial residual = 3.48310244e-05, Final residual = 2.16551319e-06, No Iterations 5
GAMG:  Solving for p, Initial residual = 9.96713468e-06, Final residual = 4.34110845e-08, No Iterations 5
time step continuity errors : sum local = 4.38278216e-08, global = 2.76500228e-09, cumulative = 0.00013536784
smoothSolver:  Solving for omega, Initial residual = 3.07566407e-07, Final residual = 1.64143357e-08, No Iterations 4
smoothSolver:  Solving for k, Initial residual = 9.54162907e-07, Final residual = 9.42098843e-08, No Iterations 3
ExecutionTime = 641.053857 s  ClockTime = 641 s

Time = 340

smoothSolver:  Solving for Ux, Initial residual = 3.59902025e-06, Final residual = 2.36534655e-07, No Iterations 5
smoothSolver:  Solving for Uy, Initial residual = 0.000214088414, Final residual = 1.88818982e-05, No Iterations 4
smoothSolver:  Solving for Uz, Initial residual = 3.44672712e-05, Final residual = 2.13410839e-06, No Iterations 5
